     NASTRAN  FILES = OPTP                                                           






                                  ****
                                *      *
                               *        *
                               *  N A S T R A N
                               *        *
                                *      *
                                  ****


                           X86_64 COMPUTER SYSTEMS   
                              Windows_NT VERSION  

                          SYSTEM RELEASE -  1995 ED.

                                DISTRIBUTED BY

         COMPUTER SOFTWARE MANAGEMENT AND INFORMATION CENTER (COSMIC)
                 UNIVERSITY OF GEORGIA, ATHENS, GEORGIA 30602
                 PHONE: (706)542-3265      FAX: (706)542-4807
1                                                                       / 95 X86_64 Windows_NT NASTRAN     / SEP  4, 16 / PAGE     2
                                                                                                                                    
0                                                                                                                                   
                                                                                                         
                                                                                                         
                         INSTALLATION CENTER USER INFORMATION GIVEN IN THIS SECTION                      
                                                                                                         
                                     *********************************************                       
                                     *                                           *                       
                                     *  PLEASE READ THE COMMENT IN DEMO PROBLEM  *                       
                                     *  D01002A ABOUT SYSTEM TIMING CONSTANTS    *                       
                                     *                                           *                       
                                     *********************************************                       
                                                                                                         
                         ===X=    TOP OF PAGE REQUEST IF 'X' IS REPLACED BY '='                          
                                                                                                         
1                                                                       / 95 X86_64 Windows_NT NASTRAN     / SEP  4, 16 / PAGE     3
                                                                                                                                    
0                                                                                                                                   
0*** USER INFORMATION MESSAGE 225, GINO TIME CONSTANTS ARE BEING COMPUTED
     (SEE NASINFO FILE FOR ELIMINATION OF THESE COMPUTATIONS)
1                                                                       / 95 X86_64 Windows_NT NASTRAN     / SEP  4, 16 / PAGE     4
                                                                                                                                    
0        N A S T R A N    E X E C U T I V E    C O N T R O L    D E C K    E C H O                                                  
0                                                                                                                                   
                                                                                                                                    
                                                                                                                                    
     ID    D01011C,RESTART                                                           
     $ INSERT THE RESTART DICTIONARY HERE                                            
0*** $   ... READFILE FROM-  RSCARDS                                                 
     RESTART  D01011A ,NASTRAN , 9/ 4/16,   77015,                                   
              1,   XVPS    ,   FLAGS = 0,   REEL =  1,   FILE =      5               
              2,   REENTER AT DMAP SEQUENCE NUMBER    12                             
              3,   GPL     ,   FLAGS = 0,   REEL =  1,   FILE =      6               
              4,   EQEXIN  ,   FLAGS = 0,   REEL =  1,   FILE =      7               
              5,   GPDT    ,   FLAGS = 0,   REEL =  1,   FILE =      8               
              6,   BGPDT   ,   FLAGS = 0,   REEL =  1,   FILE =      9               
              7,   SIL     ,   FLAGS = 0,   REEL =  1,   FILE =     10               
              8,   XVPS    ,   FLAGS = 0,   REEL =  1,   FILE =     11               
              9,   CSTM    ,   FLAGS = 0,   REEL =  0,   FILE =      0               
             10,   REENTER AT DMAP SEQUENCE NUMBER    13                             
             11,   XVPS    ,   FLAGS = 0,   REEL =  1,   FILE =     12               
             12,   MPTA    ,   FLAGS = 0,   REEL =  0,   FILE =      0               
             13,   REENTER AT DMAP SEQUENCE NUMBER    14                             
             14,   MPT     ,   FLAGS = 0,   REEL =  1,   FILE =     13               
             15,   XVPS    ,   FLAGS = 0,   REEL =  1,   FILE =     14               
             16,   REENTER AT DMAP SEQUENCE NUMBER    15                             
             17,   BGPDP   ,   FLAGS = 0,   REEL =  1,   FILE =     15               
             18,   SIP     ,   FLAGS = 0,   REEL =  1,   FILE =     16               
             19,   XVPS    ,   FLAGS = 0,   REEL =  1,   FILE =     17               
             20,   REENTER AT DMAP SEQUENCE NUMBER    16                             
             21,   ECT     ,   FLAGS = 0,   REEL =  1,   FILE =     18               
             22,   XVPS    ,   FLAGS = 0,   REEL =  1,   FILE =     19               
             23,   REENTER AT DMAP SEQUENCE NUMBER    18                             
             24,   XVPS    ,   FLAGS = 0,   REEL =  1,   FILE =     20               
             25,   PLTSETX ,   FLAGS = 0,   REEL =  0,   FILE =      0               
             26,   PLTPAR  ,   FLAGS = 0,   REEL =  0,   FILE =      0               
             27,   GPSETS  ,   FLAGS = 0,   REEL =  0,   FILE =      0               
             28,   ELSETS  ,   FLAGS = 0,   REEL =  0,   FILE =      0               
             29,   REENTER AT DMAP SEQUENCE NUMBER    28                             
             30,   SLT     ,   FLAGS = 0,   REEL =  1,   FILE =     21               
             31,   XVPS    ,   FLAGS = 0,   REEL =  1,   FILE =     22               
             32,   GPTT    ,   FLAGS = 0,   REEL =  0,   FILE =      0               
             33,   REENTER AT DMAP SEQUENCE NUMBER    30                             
             34,   EST     ,   FLAGS = 0,   REEL =  1,   FILE =     23               
             35,   GPECT   ,   FLAGS = 0,   REEL =  1,   FILE =     24               
             36,   XVPS    ,   FLAGS = 0,   REEL =  1,   FILE =     25               
             37,   GEI     ,   FLAGS = 0,   REEL =  0,   FILE =      0               
             38,   MPTX    ,   FLAGS = 0,   REEL =  0,   FILE =      0               
             39,   PCOMPS  ,   FLAGS = 0,   REEL =  0,   FILE =      0               
             40,   EPTX    ,   FLAGS = 0,   REEL =  0,   FILE =      0               
             41,   REENTER AT DMAP SEQUENCE NUMBER    31                             
             42,   MPT     ,   FLAGS = 0,   REEL =  1,   FILE =     26               
1                                                                       / 95 X86_64 Windows_NT NASTRAN     / SEP  4, 16 / PAGE     5
                                                                                                                                    
0        N A S T R A N    E X E C U T I V E    C O N T R O L    D E C K    E C H O                                                  
0                                                                                                                                   
                                                                                                                                    
                                                                                                                                    
             43,   EPT     ,   FLAGS = 0,   REEL =  1,   FILE =     27               
             44,   XVPS    ,   FLAGS = 0,   REEL =  1,   FILE =     28               
             45,   REENTER AT DMAP SEQUENCE NUMBER    34                             
             46,   XVPS    ,   FLAGS = 0,   REEL =  1,   FILE =     29               
             47,   KGGX    ,   FLAGS = 0,   REEL =  0,   FILE =      0               
             48,   REENTER AT DMAP SEQUENCE NUMBER    35                             
             49,   XVPS    ,   FLAGS = 0,   REEL =  1,   FILE =     30               
             50,   OPTP1   ,   FLAGS = 0,   REEL =  0,   FILE =      0               
             51,   REENTER AT DMAP SEQUENCE NUMBER    39                             
             52,   XVPS    ,   FLAGS = 0,   REEL =  1,   FILE =     31               
             53,   OPTP2   ,   FLAGS = 0,   REEL =  0,   FILE =      0               
             54,   EST1    ,   FLAGS = 0,   REEL =  0,   FILE =      0               
             55,   REENTER AT DMAP SEQUENCE NUMBER    40                             
             56,   KELM    ,   FLAGS = 0,   REEL =  1,   FILE =     32               
             57,   KDICT   ,   FLAGS = 0,   REEL =  1,   FILE =     33               
             58,   XVPS    ,   FLAGS = 0,   REEL =  1,   FILE =     34               
             59,   MELM    ,   FLAGS = 0,   REEL =  0,   FILE =      0               
             60,   MDICT   ,   FLAGS = 0,   REEL =  0,   FILE =      0               
             61,   REENTER AT DMAP SEQUENCE NUMBER    42                             
             62,   KGGX    ,   FLAGS = 0,   REEL =  1,   FILE =     35               
             63,   XVPS    ,   FLAGS = 0,   REEL =  1,   FILE =     36               
             64,   REENTER AT DMAP SEQUENCE NUMBER    44                             
             65,   XVPS    ,   FLAGS = 0,   REEL =  1,   FILE =     37               
             66,   MGG     ,   FLAGS = 0,   REEL =  0,   FILE =      0               
             67,   REENTER AT DMAP SEQUENCE NUMBER    54                             
             68,   KGGX    ,   FLAGS = 4,   REEL =  1,   FILE =     35               
             69,   KGG     ,   FLAGS = 4,   REEL =  1,   FILE =     35               
             70,   XVPS    ,   FLAGS = 0,   REEL =  1,   FILE =     38               
             71,   REENTER AT DMAP SEQUENCE NUMBER    58                             
             72,   GPST    ,   FLAGS = 0,   REEL =  1,   FILE =     39               
             73,   XVPS    ,   FLAGS = 0,   REEL =  1,   FILE =     40               
             74,   REENTER AT DMAP SEQUENCE NUMBER    61                             
             75,   YS      ,   FLAGS = 0,   REEL =  1,   FILE =     41               
             76,   USET    ,   FLAGS = 0,   REEL =  1,   FILE =     42               
             77,   XVPS    ,   FLAGS = 0,   REEL =  1,   FILE =     43               
             78,   RG      ,   FLAGS = 0,   REEL =  0,   FILE =      0               
             79,   ASET    ,   FLAGS = 0,   REEL =  0,   FILE =      0               
             80,   OGPST   ,   FLAGS = 0,   REEL =  0,   FILE =      0               
             81,   REENTER AT DMAP SEQUENCE NUMBER    65                             
             82,   XVPS    ,   FLAGS = 0,   REEL =  1,   FILE =     44               
             83,   KRR     ,   FLAGS = 0,   REEL =  0,   FILE =      0               
             84,   KLR     ,   FLAGS = 0,   REEL =  0,   FILE =      0               
             85,   QR      ,   FLAGS = 0,   REEL =  0,   FILE =      0               
             86,   DM      ,   FLAGS = 0,   REEL =  0,   FILE =      0               
             87,   GM      ,   FLAGS = 0,   REEL =  0,   FILE =      0               
             88,   GO      ,   FLAGS = 0,   REEL =  0,   FILE =      0               
             89,   KOO     ,   FLAGS = 0,   REEL =  0,   FILE =      0               
1                                                                       / 95 X86_64 Windows_NT NASTRAN     / SEP  4, 16 / PAGE     6
                                                                                                                                    
0        N A S T R A N    E X E C U T I V E    C O N T R O L    D E C K    E C H O                                                  
0                                                                                                                                   
                                                                                                                                    
                                                                                                                                    
             90,   LOO     ,   FLAGS = 0,   REEL =  0,   FILE =      0               
             91,   PO      ,   FLAGS = 0,   REEL =  0,   FILE =      0               
             92,   UOOV    ,   FLAGS = 0,   REEL =  0,   FILE =      0               
             93,   RUOV    ,   FLAGS = 0,   REEL =  0,   FILE =      0               
             94,   PS      ,   FLAGS = 0,   REEL =  0,   FILE =      0               
             95,   KFS     ,   FLAGS = 0,   REEL =  0,   FILE =      0               
             96,   KSS     ,   FLAGS = 0,   REEL =  0,   FILE =      0               
             97,   QG      ,   FLAGS = 0,   REEL =  0,   FILE =      0               
             98,   REENTER AT DMAP SEQUENCE NUMBER    66                             
             99,   KNN     ,   FLAGS = 4,   REEL =  1,   FILE =     35               
            100,   XVPS    ,   FLAGS = 0,   REEL =  1,   FILE =     45               
            101,   REENTER AT DMAP SEQUENCE NUMBER    71                             
            102,   XVPS    ,   FLAGS = 0,   REEL =  1,   FILE =     46               
            103,   KFF     ,   FLAGS = 0,   REEL =  0,   FILE =      0               
            104,   REENTER AT DMAP SEQUENCE NUMBER    73                             
            105,   KFF     ,   FLAGS = 0,   REEL =  1,   FILE =     47               
            106,   KFS     ,   FLAGS = 0,   REEL =  1,   FILE =     48               
            107,   KSS     ,   FLAGS = 0,   REEL =  1,   FILE =     49               
            108,   XVPS    ,   FLAGS = 0,   REEL =  1,   FILE =     50               
            109,   REENTER AT DMAP SEQUENCE NUMBER    75                             
            110,   KFF     ,   FLAGS = 4,   REEL =  1,   FILE =     47               
            111,   KAA     ,   FLAGS = 4,   REEL =  1,   FILE =     47               
            112,   XVPS    ,   FLAGS = 0,   REEL =  1,   FILE =     51               
            113,   REENTER AT DMAP SEQUENCE NUMBER    79                             
            114,   KLL     ,   FLAGS = 4,   REEL =  1,   FILE =     47               
            115,   XVPS    ,   FLAGS = 0,   REEL =  1,   FILE =     52               
            116,   REENTER AT DMAP SEQUENCE NUMBER    83                             
            117,   LLL     ,   FLAGS = 0,   REEL =  1,   FILE =     53               
            118,   XVPS    ,   FLAGS = 0,   REEL =  1,   FILE =     54               
            119,   REENTER AT DMAP SEQUENCE NUMBER    87                             
            120,   PG      ,   FLAGS = 0,   REEL =  1,   FILE =     55               
            121,   XVPS    ,   FLAGS = 0,   REEL =  1,   FILE =     56               
            122,   REENTER AT DMAP SEQUENCE NUMBER    88                             
            123,   XVPS    ,   FLAGS = 0,   REEL =  1,   FILE =     57               
            124,   PL      ,   FLAGS = 0,   REEL =  0,   FILE =      0               
            125,   REENTER AT DMAP SEQUENCE NUMBER    90                             
            126,   PS      ,   FLAGS = 0,   REEL =  1,   FILE =     58               
            127,   PL      ,   FLAGS = 0,   REEL =  1,   FILE =     59               
            128,   XVPS    ,   FLAGS = 0,   REEL =  1,   FILE =     60               
            129,   REENTER AT DMAP SEQUENCE NUMBER    92                             
            130,   ULV     ,   FLAGS = 0,   REEL =  1,   FILE =     61               
            131,   RULV    ,   FLAGS = 0,   REEL =  1,   FILE =     62               
            132,   XVPS    ,   FLAGS = 0,   REEL =  1,   FILE =     63               
            133,   REENTER AT DMAP SEQUENCE NUMBER    97                             
            134,   UGV     ,   FLAGS = 0,   REEL =  1,   FILE =     64               
            135,   PGG     ,   FLAGS = 0,   REEL =  1,   FILE =     65               
            136,   QG      ,   FLAGS = 0,   REEL =  1,   FILE =     66               
1                                                                       / 95 X86_64 Windows_NT NASTRAN     / SEP  4, 16 / PAGE     7
                                                                                                                                    
0        N A S T R A N    E X E C U T I V E    C O N T R O L    D E C K    E C H O                                                  
0                                                                                                                                   
                                                                                                                                    
                                                                                                                                    
            137,   XVPS    ,   FLAGS = 0,   REEL =  1,   FILE =     67               
            138,   REENTER AT DMAP SEQUENCE NUMBER   104                             
            139,   XVPS    ,   FLAGS = 0,   REEL =  1,   FILE =     68               
            140,   ONRGY1  ,   FLAGS = 0,   REEL =  0,   FILE =      0               
            141,   OGPFB1  ,   FLAGS = 0,   REEL =  0,   FILE =      0               
            142,   REENTER AT DMAP SEQUENCE NUMBER   105                             
            143,   XVPS    ,   FLAGS = 0,   REEL =  1,   FILE =     69               
            144,   KDICT   ,   FLAGS = 0,   REEL =  0,   FILE =      0               
            145,   KELM    ,   FLAGS = 0,   REEL =  0,   FILE =      0               
            146,   REENTER AT DMAP SEQUENCE NUMBER   111                             
            147,   OQG1    ,   FLAGS = 0,   REEL =  1,   FILE =     70               
            148,   OUGV1   ,   FLAGS = 0,   REEL =  1,   FILE =     71               
            149,   OES1    ,   FLAGS = 0,   REEL =  1,   FILE =     72               
            150,   XVPS    ,   FLAGS = 0,   REEL =  1,   FILE =     73               
            151,   OPG1    ,   FLAGS = 0,   REEL =  0,   FILE =      0               
            152,   OEF1    ,   FLAGS = 0,   REEL =  0,   FILE =      0               
            153,   PUGV1   ,   FLAGS = 0,   REEL =  0,   FILE =      0               
            154,   OES1L   ,   FLAGS = 0,   REEL =  0,   FILE =      0               
            155,   OEF1L   ,   FLAGS = 0,   REEL =  0,   FILE =      0               
            156,   REENTER AT DMAP SEQUENCE NUMBER   115                             
            157,   XVPS    ,   FLAGS = 0,   REEL =  1,   FILE =     74               
            158,   OES1M   ,   FLAGS = 0,   REEL =  0,   FILE =      0               
            159,   REENTER AT DMAP SEQUENCE NUMBER   121                             
            160,   XVPS    ,   FLAGS = 0,   REEL =  1,   FILE =     75               
            161,   OES1A   ,   FLAGS = 0,   REEL =  0,   FILE =      0               
            162,   REENTER AT DMAP SEQUENCE NUMBER   141                             
            163,   XVPS    ,   FLAGS = 0,   REEL =  1,   FILE =     76               
            164,   OUGV2   ,   FLAGS = 0,   REEL =  0,   FILE =      0               
            165,   REENTER AT DMAP SEQUENCE NUMBER   149                             
            166,   XVPS    ,   FLAGS = 0,   REEL =  1,   FILE =     77               
            167,   OESF1X  ,   FLAGS = 0,   REEL =  0,   FILE =      0               
            168,   OESF1Y  ,   FLAGS = 0,   REEL =  0,   FILE =      0               
            169,   REENTER AT DMAP SEQUENCE NUMBER   172                             
            170,   XVPS    ,   FLAGS = 0,   REEL =  1,   FILE =     78               
            171,   DUMMY   ,   FLAGS = 0,   REEL =  0,   FILE =      0               
     $ END OF CHECKPOINT DICTIONARY                                                  
0*** $   END READFILE                                                                
     TIME  5                                                                         
     SOL   3,1                                                                       
     APP   DISPLACEMENT                                                              
     CEND                                                                            
0*** SWITCHED SOLUTION FOR RESTART - OLD SOLUTION =   1, NEW SOLUTION =   3, BIT NUMBER = 187
1 DELTA WING              RESTART, REAL EIGENVALUE ANALYSIS             / 95 X86_64 Windows_NT NASTRAN     / SEP  4, 16 / PAGE     8
      NASTRAN DEMONSTRATION PROBLEM NO. D01-01-1C                                                                                   
0     RIGID FORMAT SWITCH FROM 1 TO 3                                                                                               
0                                        C A S E    C O N T R O L   D E C K   E C H O                                               
                 CARD                                                                                                               
                 COUNT                                                                                                              
                  1      TITLE    = DELTA WING              RESTART, REAL EIGENVALUE ANALYSIS            
                  2      SUBTITLE = NASTRAN DEMONSTRATION PROBLEM NO. D01-01-1C                          
                  3      LABEL    = RIGID FORMAT SWITCH FROM 1 TO 3                                      
                  4        SPC    = 1                                                                    
                  5        METHOD = 12                                                                   
                  6      OUTPUT                                                                          
                  7      $   SET 1  HAS GRIDS ON THE UPPER SURFACE  * * * * * * * * * * * * * * *        
                  8      $   SET 2  HAS TOP SURFACE ELEMENTS, SHEAR(TRAILING AND LEADING EDGE),          
                  9      $   SHEAR(CENTERLINE - BOTH DIRECTIONS), SHEAR(TIP)   * * * * * * * *           
                 10      $                                                                               
                 11              SET 1 = 11 THRU 16,31 THRU 36,51 THRU 55,71 THRU 74,91 THRU 93          
                 12              SET 2 =  1 THRU 22,28 THRU 31, 35, 36, 41 THRU 44, 50                   
                 13      $                                                                               
                 14              DISPLACEMENTS = 1                                                       
                 15              SPCFORCE      = ALL                                                     
                 16              ELSTRESS      = 2                                                       
                 17      BEGIN BULK                                                                      
1 DELTA WING              RESTART, REAL EIGENVALUE ANALYSIS             / 95 X86_64 Windows_NT NASTRAN     / SEP  4, 16 / PAGE     9
      NASTRAN DEMONSTRATION PROBLEM NO. D01-01-1C                                                                                   
0     RIGID FORMAT SWITCH FROM 1 TO 3                                                                                               
0                                             I N P U T   B U L K   D A T A   D E C K   E C H O                                     
                                                                                                                                    
                                  ---1--- +++2+++ ---3--- +++4+++ ---5--- +++6+++ ---7--- +++8+++ ---9--- +++10+++                  
                              EIGR    12      INV     30.0    160.0   1       3       0       1.-4    +EIGR12               
                              +EIGR12 MAX                                                                                   
                              ENDDATA                                                                                       


                        TOTAL COUNT=      2
0*** USER INFORMATION MESSAGE 207, BULK DATA DECK IS NOT SORTED. NASTRAN WILL RE-ORDER THE INPUT DECK.
1 DELTA WING              RESTART, REAL EIGENVALUE ANALYSIS             / 95 X86_64 Windows_NT NASTRAN     / SEP  4, 16 / PAGE    10
      NASTRAN DEMONSTRATION PROBLEM NO. D01-01-1C                                                                                   
0     RIGID FORMAT SWITCH FROM 1 TO 3                                                                                               
0                                                 S O R T E D   B U L K    D A T A    E C H O                                       
                     CARD                                                                                                           
                     COUNT        ---1--- +++2+++ ---3--- +++4+++ ---5--- +++6+++ ---7--- +++8+++ ---9--- +++10+++                  
                    1-        CONROD  100     11      12      1       .035                                    
                    2-        CONROD  101     12      13      1       .035                                    
                    3-        CONROD  102     13      14      1       .0344                                   
                    4-        CONROD  103     14      15      1       .0325                                   
                    5-        CONROD  104     15      16      1       .03                                     
                    6-        CONROD  105     31      32      1       .091                                    
                    7-        CONROD  106     32      33      1       .091                                    
                    8-        CONROD  107     33      34      1       .088                                    
                    9-        CONROD  108     34      35      1       .0719                                   
                   10-        CONROD  109     35      36      1       .0453                                   
                   11-        CONROD  110     51      52      1       .11                                     
                   12-        CONROD  111     52      53      1       .11                                     
                   13-        CONROD  112     53      54      1       .094                                    
                   14-        CONROD  113     54      55      1       .0563                                   
                   15-        CONROD  114     71      72      1       .091                                    
                   16-        CONROD  115     72      73      1       .091                                    
                   17-        CONROD  116     73      74      1       .0649                                   
                   18-        CONROD  117     91      92      1       .035                                    
                   19-        CONROD  118     92      93      1       .035                                    
                   20-        CONROD  119     12      32      1       .063                                    
                   21-        CONROD  120     32      52      1       .1002                                   
                   22-        CONROD  121     52      72      1       .1002                                   
                   23-        CONROD  122     72      92      1       .063                                    
                   24-        CONROD  123     13      33      1       .063                                    
                   25-        CONROD  124     33      53      1       .1002                                   
                   26-        CONROD  125     53      73      1       .1002                                   
                   27-        CONROD  126     73      93      1       .063                                    
                   28-        CONROD  127     14      34      1       .0572                                   
                   29-        CONROD  128     34      54      1       .0805                                   
                   30-        CONROD  129     54      74      1       .0572                                   
                   31-        CONROD  130     15      35      1       .0474                                   
                   32-        CONROD  131     35      55      1       .0474                                   
                   33-        CONROD  132     16      36      1       .028                                    
                   34-        CONROD  133     93      74      1       .0344                                   
                   35-        CONROD  134     74      55      1       .0325                                   
                   36-        CONROD  135     55      36      1       .03                                     
                   37-        CQDMEM  1       1       11      12      32      31                              
                   38-        CQDMEM  2       1       12      13      33      32                              
                   39-        CQDMEM  3       1       13      14      34      33                              
                   40-        CQDMEM  4       1       14      15      35      34                              
                   41-        CQDMEM  5       1       15      16      36      35                              
                   42-        CQDMEM  6       1       31      32      52      51                              
                   43-        CQDMEM  7       1       32      33      53      52                              
                   44-        CQDMEM  8       1       33      34      54      53                              
                   45-        CQDMEM  9       1       34      35      55      54                              
                   46-        CQDMEM  11      1       51      52      72      71                              
                   47-        CQDMEM  12      1       52      53      73      72                              
1 DELTA WING              RESTART, REAL EIGENVALUE ANALYSIS             / 95 X86_64 Windows_NT NASTRAN     / SEP  4, 16 / PAGE    11
      NASTRAN DEMONSTRATION PROBLEM NO. D01-01-1C                                                                                   

      RIGID FORMAT SWITCH FROM 1 TO 3                                                                                               

                                                  S O R T E D   B U L K    D A T A    E C H O                                       
                     CARD                                                                                                           
                     COUNT        ---1--- +++2+++ ---3--- +++4+++ ---5--- +++6+++ ---7--- +++8+++ ---9--- +++10+++                  
                   48-        CQDMEM  13      1       53      54      74      73                              
                   49-        CQDMEM  15      1       71      72      92      91                              
                   50-        CQDMEM  16      1       72      73      93      92                              
                   51-        CROD    60      5       1       11      61      6       2       12              
                   52-        CROD    62      8       3       13      63      8       4       14              
                   53-        CROD    64      8       5       15      65      6       6       16              
                   54-        CROD    66      6       21      31      67      7       22      32              
                   55-        CROD    68      9       23      33      69      9       24      34              
                   56-        CROD    70      9       25      35      71      8       26      36              
                   57-        CROD    72      6       41      51      73      7       42      52              
                   58-        CROD    74      9       43      53      75      9       44      54              
                   59-        CROD    76      9       45      55      77      6       61      71              
                   60-        CROD    78      7       62      72      79      9       63      73              
                   61-        CROD    80      9       64      74      81      5       81      91              
                   62-        CROD    82      6       82      92      83      8       83      93              
                   63-        CSHEAR  18      2       1       2       12      11                              
                   64-        CSHEAR  19      2       2       3       13      12                              
                   65-        CSHEAR  20      2       3       4       14      13                              
                   66-        CSHEAR  21      2       4       5       15      14                              
                   67-        CSHEAR  22      2       5       6       16      15                              
                   68-        CSHEAR  23      2       21      22      32      31                              
                   69-        CSHEAR  24      2       22      23      33      32                              
                   70-        CSHEAR  25      2       23      24      34      33                              
                   71-        CSHEAR  26      2       24      25      35      34                              
                   72-        CSHEAR  27      2       25      26      36      35                              
                   73-        CSHEAR  28      2       41      42      52      51                              
                   74-        CSHEAR  29      2       42      43      53      52                              
                   75-        CSHEAR  30      2       43      44      54      53                              
                   76-        CSHEAR  31      2       44      45      55      54                              
                   77-        CSHEAR  32      2       61      62      72      71                              
                   78-        CSHEAR  33      2       62      63      73      72                              
                   79-        CSHEAR  34      2       63      64      74      73                              
                   80-        CSHEAR  35      2       81      82      92      91                              
                   81-        CSHEAR  36      2       82      83      93      92                              
                   82-        CSHEAR  37      2       2       22      32      12                              
                   83-        CSHEAR  38      2       22      42      52      32                              
                   84-        CSHEAR  39      2       42      62      72      52                              
                   85-        CSHEAR  40      2       62      82      92      72                              
                   86-        CSHEAR  41      2       3       23      33      13                              
                   87-        CSHEAR  42      2       23      43      53      33                              
                   88-        CSHEAR  43      2       43      63      73      53                              
                   89-        CSHEAR  44      2       63      83      93      73                              
                   90-        CSHEAR  45      2       4       24      34      14                              
                   91-        CSHEAR  46      2       24      44      54      34                              
                   92-        CSHEAR  47      2       44      64      74      54                              
                   93-        CSHEAR  48      2       5       25      35      15                              
                   94-        CSHEAR  49      2       25      45      55      35                              
1 DELTA WING              RESTART, REAL EIGENVALUE ANALYSIS             / 95 X86_64 Windows_NT NASTRAN     / SEP  4, 16 / PAGE    12
      NASTRAN DEMONSTRATION PROBLEM NO. D01-01-1C                                                                                   

      RIGID FORMAT SWITCH FROM 1 TO 3                                                                                               

                                                  S O R T E D   B U L K    D A T A    E C H O                                       
                     CARD                                                                                                           
                     COUNT        ---1--- +++2+++ ---3--- +++4+++ ---5--- +++6+++ ---7--- +++8+++ ---9--- +++10+++                  
                   95-        CSHEAR  50      2       6       26      36      16                              
                   96-        CSHEAR  51      2       26      45      55      36                              
                   97-        CSHEAR  52      2       45      64      74      55                              
                   98-        CSHEAR  53      2       64      83      93      74                              
                   99-        CTRMEM  10      3       35      36      55                                      
                  100-        CTRMEM  14      3       54      55      74                                      
                  101-        CTRMEM  17      3       73      74      93                                      
                  102-        EIGR    12      INV     30.0    160.0   1       3       0       1.-4    +EIGR12 
                  103-        +EIGR12 MAX                                                                     
                  104-        FORCE   1       16      0       -1.     .0      .0      500.                    
                  105-        FORCE   2       36              -1.0    .0      .0      500.0                   
                  106-        GRDSET                                                  456                     
                  107-        GRID    1               .0      .0      .0                                      
                  108-        GRID    2               10.     .0      .0                                      
                  109-        GRID    3               30.     .0      .0                                      
                  110-        GRID    4               50.     .0      .0                                      
                  111-        GRID    5               70.     .0      .0                                      
                  112-        GRID    6               90.     .0      .0                                      
                  113-        GRID    11              .0      .0      .82                                     
                  114-        GRID    12              10.     .0      .82                                     
                  115-        GRID    13              30.     .0      .82                                     
                  116-        GRID    14              50.     .0      .795                                    
                  117-        GRID    15              70.     .0      .754                                    
                  118-        GRID    16              90.     .0      .67                                     
                  119-        GRID    21              .0      20.     .0                                      
                  120-        GRID    22              10.     20.     .0                                      
                  121-        GRID    23              30.     20.     .0                                      
                  122-        GRID    24              50.     20.     .0                                      
                  123-        GRID    25              70.     20.     .0                                      
                  124-        GRID    26              90.     20.     .0                                      
                  125-        GRID    31              .0      20.     2.02                                    
                  126-        GRID    32              10.     20.     2.02                                    
                  127-        GRID    33              30.     20.     2.02                                    
                  128-        GRID    34              50.     20.     1.795                                   
                  129-        GRID    35              70.     20.     1.42                                    
                  130-        GRID    36              90.     20.     .67                                     
                  131-        GRID    41              .0      40.     .0                                      
                  132-        GRID    42              10.     40.     .0                                      
                  133-        GRID    43              30.     40.     .0                                      
                  134-        GRID    44              50.     40.     .0                                      
                  135-        GRID    45              70.     40.     .0                                      
                  136-        GRID    51              .0      40.     2.42                                    
                  137-        GRID    52              10.     40.     2.42                                    
                  138-        GRID    53              30.     40.     2.42                                    
                  139-        GRID    54              50.     40.     1.795                                   
                  140-        GRID    55              70.     40.     .754                                    
                  141-        GRID    61              .0      60.     .0                                      
1 DELTA WING              RESTART, REAL EIGENVALUE ANALYSIS             / 95 X86_64 Windows_NT NASTRAN     / SEP  4, 16 / PAGE    13
      NASTRAN DEMONSTRATION PROBLEM NO. D01-01-1C                                                                                   

      RIGID FORMAT SWITCH FROM 1 TO 3                                                                                               

                                                  S O R T E D   B U L K    D A T A    E C H O                                       
                     CARD                                                                                                           
                     COUNT        ---1--- +++2+++ ---3--- +++4+++ ---5--- +++6+++ ---7--- +++8+++ ---9--- +++10+++                  
                  142-        GRID    62              10.     60.     .0                                      
                  143-        GRID    63              30.     60.     .0                                      
                  144-        GRID    64              50.     60.     .0                                      
                  145-        GRID    71              .0      60.     2.02                                    
                  146-        GRID    72              10.     60.     2.02                                    
                  147-        GRID    73              30.     60.     2.02                                    
                  148-        GRID    74              50.     60.     .795                                    
                  149-        GRID    81              .0      80.     .0                                      
                  150-        GRID    82              10.     80.     .0                                      
                  151-        GRID    83              30.     80.     .0                                      
                  152-        GRID    91              .0      80.     .82                                     
                  153-        GRID    92              10.     80.     .82                                     
                  154-        GRID    93              30.     80.     .82                                     
                  155-        MAT1    1       10.4  +64.   +6                                                 
                  156-        MAT1    2       1.04+7  4.+6            .2523-3                                 
                  157-        PARAM   IRES    1                                                               
                  158-        PQDMEM  1       2       .16     .0                                              
                  159-        PROD    5       1       2.1                                                     
                  160-        PROD    6       1       3.5                                                     
                  161-        PROD    7       1       4.91                                                    
                  162-        PROD    8       1       4.2                                                     
                  163-        PROD    9       1       5.6                                                     
                  164-        PSHEAR  2       2       .14     .0                                              
                  165-        PTRMEM  3       2       .16     .0                                              
                  166-        SPC1    1       1       11      31      51      71      91                      
                  167-        SPC1    1       3       13      33      53      73      93                      
                  168-        SPC1    1       12      1       2       3       4       5       6       +SPC-A  
                  169-        +SPC-A  21      22      23      24      25      26      41      42      +SPC-B  
                  170-        +SPC-B  43      44      45      61      62      63      64      81      +SPC-C  
                  171-        +SPC-C  82      83                                                              
                              ENDDATA
1 DELTA WING              RESTART, REAL EIGENVALUE ANALYSIS             / 95 X86_64 Windows_NT NASTRAN     / SEP  4, 16 / PAGE    14
      NASTRAN DEMONSTRATION PROBLEM NO. D01-01-1C                                                                                   
0     RIGID FORMAT SWITCH FROM 1 TO 3                                                                                               
0*** USER INFORMATION MESSAGE 4145, THIS IS A MODIFIED RESTART INVOLVING RIGID FORMAT SWITCH.
0*** USER INFORMATION MESSAGE. CASE CONTROL AND BULK DATA DECK CHANGES AFFECTING THIS RESTART ARE INDICATED BELOW.

0*** USER INFORMATION MESSAGE. EFFECTIVE CASE CONTROL DECK CHANGES
 -----------------------------------


 MASK WORD - BIT POSITION ---- FLAG NAME ---- PACKED BIT POSITION

    17
                   4           METHOD$                62
                  17           POUT$                  19
0*** USER INFORMATION MESSAGE. EFFECTIVE BULK DATA DECK CHANGES
 --------------------------------


 MASK WORD - BIT POSITION - CARD/PARAM NAME - PACKED BIT POSITION

     3
                  23           EIGR                   61
1 DELTA WING              RESTART, REAL EIGENVALUE ANALYSIS             / 95 X86_64 Windows_NT NASTRAN     / SEP  4, 16 / PAGE    15
      NASTRAN DEMONSTRATION PROBLEM NO. D01-01-1C                                                                                   
0     RIGID FORMAT SWITCH FROM 1 TO 3                                                                                               
0         COSMIC / NASTRAN DMAP COMPILER - SOURCE LISTING                                                                           
                                                                                                                                    
                                                                                                                                    
0  OPTIONS IN EFFECT GO      ERR=2   LIST    NODECK  NOREF   NOOSCAR 
   -----------------


       1  BEGIN    DISP 03 - NORMAL MODES ANALYSIS - APR. 1995 $                  
+  +

       2  PRECHK   ALL $                                                          

       3  FILE     LAMA=APPEND/PHIA=APPEND $                                      
+  +

       4  PARAM    //*MPY*/CARDNO/0/0 $                                           
+  *

       5  GP1      GEOM1,GEOM2,/GPL,EQEXIN,GPDT,CSTM,BGPDT,SIL/S,N,LUSET/         
                   NOGPDT/ALWAYS=-1 $                                             

       6  ANISOP   GEOM1,EPT,BGPDT,EQEXIN,MPT/MPTA/S,N,ISOP $                     

       7  EQUIV    MPTA,MPT/ISOP $                                                

       8  PLTTRAN  BGPDT,SIL/BGPDP,SIP/LUSET/S,N,LUSEP $                          

       9  GP2      GEOM2,EQEXIN/ECT $                                             

      10  PARAML   PCDB//*PRES*////JUMPPLOT $                                     

      11  PURGE    PLTSETX,PLTPAR,GPSETS,ELSETS/JUMPPLOT $                        

      12  COND     P1,JUMPPLOT $                                                  

      13  PLTSET   PCDB,EQEXIN,ECT,EPT/PLTSETX,PLTPAR,GPSETS,ELSETS/S,N,NSIL/     
                   S,N,JUMPPLOT $                                                 

      14  PRTMSG   PLTSETX// $                                                    

      15  PARAM    //*MPY*/PLTFLG/1/1 $                                           

      16  PARAM    //*MPY*/PFILE/0/0 $                                            

      17  COND     P1,JUMPPLOT $                                                  

      18  PLOT     PLTPAR,GPSETS,ELSETS,CASECC,BGPDT,EQEXIN,SIL,,ECT,,,,/PLOTX1/  
                   NSIL/LUSET/S,N,JUMPPLOT/S,N,PLTFLG/S,N,PFILE  $                

      19  PRTMSG   PLOTX1//$                                                      

      20  LABEL    P1 $                                                           
+  +
1 DELTA WING              RESTART, REAL EIGENVALUE ANALYSIS             / 95 X86_64 Windows_NT NASTRAN     / SEP  4, 16 / PAGE    16
      NASTRAN DEMONSTRATION PROBLEM NO. D01-01-1C                                                                                   

      RIGID FORMAT SWITCH FROM 1 TO 3                                                                                               

          COSMIC / NASTRAN DMAP COMPILER - SOURCE LISTING                                                                           
                                                                                                                                    
                                                                                                                                    

      21  GP3      GEOM3,EQEXIN,GEOM2/,GPTT/NOGRAV $                              

      22  TA1      ECT,EPT,BGPDT,SIL,GPTT,CSTM,MPT,EQEXIN/EST,GEI,GPECT,,,MPTX,   
                   PCOMPS,EPTX/LUSET/S,N,NOSIMP/1/S,N,NOGENL/GENEL/S,N,COMPS $    

      23  EQUIV    MPTX,MPT/COMPS/EPTX,EPT/COMPS $                                
+  *

      24  COND     ERROR4,NOSIMP $                                                

      25  PARAM    //*ADD*/NOKGGX/1/0 $                                           

      26  PARAM    //*ADD*/NOMGG/1/0 $                                            
+  *

      27  EMG      EST,CSTM,MPT,DIT,GEOM2,/KELM,KDICT,MELM,MDICT,,,/S,N,NOKGGX/   
+  *
                   S,N,NOMGG////C,Y,COUPMASS/C,Y,CPBAR/C,Y,CPROD/C,Y,CPQUAD1/     
                   C,Y,CPQUAD2/C,Y,CPTRIA1/C,Y,CPTRIA2/C,Y,CPTUBE/C,Y,CPQDPLT/    
                   C,Y,CPTRPLT/C,Y,CPTRBSC/C,Y,VOLUME/C,Y,SURFACE $               

      28  PURGE    KGGX/NOKGGX $                                                  

      29  COND     JMPKGG,NOKGGX $                                                

      30  EMA      GPECT,KDICT,KELM/KGGX $                                        

      31  LABEL    JMPKGG $                                                       
+  +

      32  COND     ERROR1,NOMGG $                                                 
+  *

      33  EMA      GPECT,MDICT,MELM/MGG/-1/C,Y,WTMASS=1.0 $                       
+  *

      34  PURGE    MDICT,MELM/ALWAYS $                                            

      35  COND     LGPWG,GRDPNT $                                                 

      36  GPWG     BGPDP,CSTM,EQEXIN,MGG/OGPWG/V,Y,GRDPNT=-1/C,Y,WTMASS $         

      37  OFP      OGPWG,,,,,//S,N,CARDNO $                                       

      38  LABEL    LGPWG $                                                        
+  +

      39  EQUIV    KGGX,KGG/NOGENL $                                              

      40  COND     LBL11,NOGENL $                                                 

      41  SMA3     GEI,KGGX/KGG/LUSET/NOGENL/NOSIMP $                             
1 DELTA WING              RESTART, REAL EIGENVALUE ANALYSIS             / 95 X86_64 Windows_NT NASTRAN     / SEP  4, 16 / PAGE    17
      NASTRAN DEMONSTRATION PROBLEM NO. D01-01-1C                                                                                   

      RIGID FORMAT SWITCH FROM 1 TO 3                                                                                               

          COSMIC / NASTRAN DMAP COMPILER - SOURCE LISTING                                                                           
                                                                                                                                    
                                                                                                                                    

      42  LABEL    LBL11 $                                                        
+  +

      43  GPSTGEN  KGG,SIL/GPST $                                                 

      44  PARAM    //*MPY*/NSKIP/0/0 $                                            

      45  GP4      CASECC,GEOM4,EQEXIN,GPDT,BGPDT,CSTM,GPST/RG,YS,USET,           
                   ASET,OGPST/LUSET/S,N,MPCF1/S,N,MPCF2/S,N,SINGLE/S,N,OMIT/      
                   S,N,REACT/S,N,NSKIP/S,N,REPEAT/S,N,NOSET/S,N,NOL/S,N,NOA/      
                   C,Y,ASETOUT/C,Y,AUTOSPC $                                      

      46  OFP      OGPST,,,,,//S,N,CARDNO $                                       

      47  COND     ERROR3,NOL $                                                   

      48  PURGE    KRR,KLR,DM,MLR,MR/REACT/GM/MPCF1/GO/OMIT/KFS/SINGLE/QG/NOSET $ 

      49  EQUIV    KGG,KNN/MPCF1/MGG,MNN/MPCF1 $                                  

      50  COND     LBL2,MPCF1 $                                                   

      51  MCE1     USET,RG/GM $                                                   

      52  MCE2     USET,GM,KGG,MGG,,/KNN,MNN,, $                                  

      53  LABEL    LBL2 $                                                         
+  +

      54  EQUIV    KNN,KFF/SINGLE/MNN,MFF/SINGLE $                                

      55  COND     LBL3,SINGLE $                                                  

      56  SCE1     USET,KNN,MNN,,/KFF,KFS,,MFF,, $                                

      57  LABEL    LBL3  $                                                        
+  +

      58  EQUIV    KFF,KAA/OMIT $                                                 

      59  EQUIV    MFF,MAA/OMIT $                                                 

      60  COND     LBL5,OMIT $                                                    

      61  SMP1     USET,KFF,,,/GO,KAA,KOO,LOO,,,,, $                              

      62  SMP2     USET,GO,MFF/MAA $                                              

      63  LABEL    LBL5 $                                                         
+  +
1 DELTA WING              RESTART, REAL EIGENVALUE ANALYSIS             / 95 X86_64 Windows_NT NASTRAN     / SEP  4, 16 / PAGE    18
      NASTRAN DEMONSTRATION PROBLEM NO. D01-01-1C                                                                                   

      RIGID FORMAT SWITCH FROM 1 TO 3                                                                                               

          COSMIC / NASTRAN DMAP COMPILER - SOURCE LISTING                                                                           
                                                                                                                                    
                                                                                                                                    

      64  COND     LBL6,REACT $                                                   

      65  RBMG1    USET,KAA,MAA/KLL,KLR,KRR,MLL,MLR,MRR $                         

      66  RBMG2    KLL/LLL $                                                      

      67  RBMG3    LLL,KLR,KRR/DM $                                               

      68  RBMG4    DM,MLL,MLR,MRR/MR $                                            

      69  LABEL    LBL6 $                                                         
+  +

      70  DPD      DYNAMICS,GPL,SIL,USET/GPLD,SILD,USETD,,,,,,,EED,EQDYN/         
+  *
                   LUSET/LUSETD/NOTFL/NODLT/NOPSDL/NOFRL/                         
                   NONLFT/NOTRL/S,N,NOEED//NOUE $                                 

      71  COND     ERROR2,NOEED $                                                 
+  *

      72  PARAM    //*MPY*/NEIGV/1/-1 $                                           

      73  READ     KAA,MAA,MR,DM,EED,USET,CASECC/LAMA,PHIA,MI,OEIGS/*MODES*/      
+  *
                   S,N,NEIGV $                                                    

      74  OFP      OEIGS,,,,,//S,N,CARDNO $                                       
+  *

      75  COND     FINIS,NEIGV $                                                  
+  *

      76  OFP      LAMA,,,,,//S,N,CARDNO $                                        
+  *

      77  SDR1     USET,,PHIA,,,GO,GM,,KFS,,/PHIG,,QG/1/*REIG* $                  
+  *

      78  COND     NOMPCF,GRDEQ $                                                 
+  *

      79  EQMCK    CASECC,EQEXIN,GPL,BGPDT,SIL,USET,KGG,GM,PHIG,LAMA,QG,CSTM/     
+  *
                   OQM1/V,Y,OPT=0/V,Y,GRDEQ/-1 $                                  

      80  OFP      OQM1,,,,,//S,N,CARDNO $                                        
+  *

      81  LABEL    NOMPCF $                                                       
+  +

      82  SDR2     CASECC,CSTM,MPT,DIT,EQEXIN,SIL,,,BGPDP,LAMA,QG,PHIG,EST,,,     
+  *
                   PCOMPS/,OQG1,OPHIG,OES1,OEF1,PPHIG,OES1L,OEF1L/                
                   *REIG*////COMPS $                                              

      83  OFP      OPHIG,OQG1,OEF1,OES1,OEF1L,OES1L//S,N,CARDNO $                 
+  *
1 DELTA WING              RESTART, REAL EIGENVALUE ANALYSIS             / 95 X86_64 Windows_NT NASTRAN     / SEP  4, 16 / PAGE    19
      NASTRAN DEMONSTRATION PROBLEM NO. D01-01-1C                                                                                   

      RIGID FORMAT SWITCH FROM 1 TO 3                                                                                               

          COSMIC / NASTRAN DMAP COMPILER - SOURCE LISTING                                                                           
                                                                                                                                    
                                                                                                                                    

      84  SCAN     CASECC,OES1,OEF1,OES1L,OEF1L/OESF1,OESF1L/*RF* $               
+  *

      85  OFP      OESF1,OESF1L,,,,//S,N,CARDNO $                                 
+  *

      86  GPFDR    CASECC,PHIG,KELM,KDICT,ECT,EQEXIN,GPECT,LAMA,/ONRGY1,/*REIG* $ 
+  *

      87  OFP      ONRGY1,,,,,//S,N,CARDNO $                                      
+  *

      88  PURGE    KDICT,KELM/ALWAYS $                                            

      89  COND     P2,JUMPPLOT $                                                  

      90  PLOT     PLTPAR,GPSETS,ELSETS,CASECC,BGPDT,EQEXIN,SIP,,PPHIG,GPECT,OES1,
                   OES1L,/PLOTX2/NSIL/LUSEP/JUMPPLOT/PLTFLG/S,N,PFILE $           

      91  PRTMSG   PLOTX2// $                                                     

      92  LABEL    P2 $                                                           
+  +

      93  JUMP     FINIS $                                                        
+  *

      94  LABEL    ERROR1 $                                                       
+  +

      95  PRTPARM  //-1/*MODES* $                                                 
+  *

      96  LABEL    ERROR2 $                                                       
+  +

      97  PRTPARM  //-2/*MODES* $                                                 
+  *

      98  LABEL    ERROR3 $                                                       
+  +

      99  PRTPARM  //-3/*MODES* $                                                 
+  *

     100  LABEL    ERROR4 $                                                       
+  +

     101  PRTPARM  //-4/*MODES* $                                                 
+  *

     102  LABEL    FINIS $                                                        
+  +

     103  PURGE    DUMMY/ALWAYS $                                                 
+  *

     104  END      $                                                              
+  *
1 DELTA WING              RESTART, REAL EIGENVALUE ANALYSIS             / 95 X86_64 Windows_NT NASTRAN     / SEP  4, 16 / PAGE    20
      NASTRAN DEMONSTRATION PROBLEM NO. D01-01-1C                                                                                   

      RIGID FORMAT SWITCH FROM 1 TO 3                                                                                               

          COSMIC / NASTRAN DMAP COMPILER - SOURCE LISTING                                                                           
                                                                                                                                    
                                                                                                                                    
0
0  + INDICATES DMAP INSTRUCTIONS THAT ARE PROCESSED ONLY AT DMAP COMPILATION TIME.
0  * INDICATES DMAP INSTRUCTIONS THAT ARE FLAGGED FOR EXECUTION IN THIS MODIFIED RESTART.
1 DELTA WING              RESTART, REAL EIGENVALUE ANALYSIS             / 95 X86_64 Windows_NT NASTRAN     / SEP  4, 16 / PAGE    21
      NASTRAN DEMONSTRATION PROBLEM NO. D01-01-1C                                                                                   
0     RIGID FORMAT SWITCH FROM 1 TO 3                                                                                               
0*** USER INFORMATION MESSAGE 4147
     NOTE THAT ADDITIONAL DMAP INSTRUCTIONS (NOT INDICATED BY AN * IN THE DMAP SOURCE LISTING)
     NEED TO BE FLAGGED FOR EXECUTION IN ORDER TO GENERATE CERTAIN REQUIRED DATA BLOCKS.
     SUCH INSTRUCTIONS AND THE ASSOCIATED DATA BLOCKS ARE IDENTIFIED BELOW.
0TO GENERATE DATA BLOCK MAA      - TURN ON THE EXECUTE FLAG FOR THE FOLLOWING DMAP INSTRUCTIONS

   59  XEQUIV  
   60  COND    
   62  SMP2    
0TO GENERATE DATA BLOCK MFF      - TURN ON THE EXECUTE FLAG FOR THE FOLLOWING DMAP INSTRUCTIONS

   48  XPURGE  
   54  XEQUIV  
   55  COND    
   56  SCE1    
0TO GENERATE DATA BLOCK MNN      - TURN ON THE EXECUTE FLAG FOR THE FOLLOWING DMAP INSTRUCTIONS

   49  XEQUIV  
   50  COND    
   52  MCE2    
0TO GENERATE DATA BLOCK MR       - TURN ON THE EXECUTE FLAG FOR THE FOLLOWING DMAP INSTRUCTIONS

   64  COND    
   68  RBMG4   
0TO GENERATE DATA BLOCK MLL      - TURN ON THE EXECUTE FLAG FOR THE FOLLOWING DMAP INSTRUCTIONS

   65  RBMG1   
1 DELTA WING              RESTART, REAL EIGENVALUE ANALYSIS             / 95 X86_64 Windows_NT NASTRAN     / SEP  4, 16 / PAGE    22
      NASTRAN DEMONSTRATION PROBLEM NO. D01-01-1C                                                                                   
0     RIGID FORMAT SWITCH FROM 1 TO 3                                                                                               
0THE FOLLOWING FILES FROM THE OLD PROBLEM TAPE WERE USED TO INITIATE RESTART

    FILE NAME  REEL NO.  FILE NO.

     CSTM      (PURGED)
     MPTX      (PURGED)
     PCOMPS    (PURGED)
     EPTX      (PURGED)
     DM        (PURGED)
     GM        (PURGED)
     GO        (PURGED)
     GPL              1         6
     EQEXIN           1         7
     BGPDT            1         9
     SIL              1        10
     BGPDP            1        15
     ECT              1        18
     EST              1        23
     GPECT            1        24
     KGGX             1        35
     KGG              1        35
     KNN              1        35
     USET             1        42
     KFF              1        47
     KAA              1        47
     KLL              1        47
     XVPS             1        78
0          **NO ERRORS FOUND - EXECUTE NASTRAN PROGRAM**
0*** USER INFORMATION MESSAGE 238, TURN DIAG 38 ON FOR ADDITIONAL ELEMENT PROCESSING INFORMATION

0*** USER INFORMATION MESSAGE 3113,
     EMG MODULE PROCESSING DOUBLE PRECISION CONROD   ELEMENTS (ELEMENT TYPE  10) STARTING WITH ID      100
0*** USER INFORMATION MESSAGE 3113,
     EMG MODULE PROCESSING DOUBLE PRECISION QDMEM    ELEMENTS (ELEMENT TYPE  16) STARTING WITH ID        1
0*** USER INFORMATION MESSAGE 3113,
     EMG MODULE PROCESSING DOUBLE PRECISION ROD      ELEMENTS (ELEMENT TYPE   1) STARTING WITH ID       60
0*** USER INFORMATION MESSAGE 3113,
     EMG MODULE PROCESSING DOUBLE PRECISION SHEAR    ELEMENTS (ELEMENT TYPE   4) STARTING WITH ID       18
0*** USER INFORMATION MESSAGE 3113,
     EMG MODULE PROCESSING DOUBLE PRECISION TRMEM    ELEMENTS (ELEMENT TYPE   9) STARTING WITH ID       10
                        1 ROOTS BELOW   5.230891E+05
                        2 ROOTS BELOW   5.589985E+05
                        1 ROOTS BELOW   6.745796E+04
                        3 ROOTS BELOW   9.642877E+05
1 DELTA WING              RESTART, REAL EIGENVALUE ANALYSIS             / 95 X86_64 Windows_NT NASTRAN     / SEP  4, 16 / PAGE    23
      NASTRAN DEMONSTRATION PROBLEM NO. D01-01-1C                                                                                   
0     RIGID FORMAT SWITCH FROM 1 TO 3                                                                                               
 
 
                              E I G E N V A L U E   A N A L Y S I S   S U M M A R Y     (INVERSE POWER METHOD)
0
0                                       NUMBER OF EIGENVALUES EXTRACTED  . . . . . .         3
0                                       NUMBER OF STARTING POINTS USED . . . . . . .         1
0                                       NUMBER OF STARTING POINT MOVES . . . . . . .         0
0                                       NUMBER OF TRIANGULAR DECOMPOSITIONS  . . . .         4
0                                       TOTAL NUMBER OF VECTOR ITERATIONS  . . . . .        19

0                                       REASON FOR TERMINATION . . . . . . . . . . .         6*

0                                       LARGEST OFF-DIAGONAL MODAL MASS TERM . . . .  0.12E-07
0                                                                              . . .         3
                                                  MODE PAIR . . . . . . . . . .
                                                                               . . .         2
0                                       NUMBER OF OFF-DIAGONAL MODAL MASS
                                             TERMS FAILING CRITERION . . . . . . . .         0

0                                       (* NO. OF ROOTS DESIRED WERE FOUND.
                                         SEE NASTRAN U.M. VOL II, SECTION 2.3.3)
1 DELTA WING              RESTART, REAL EIGENVALUE ANALYSIS             / 95 X86_64 Windows_NT NASTRAN     / SEP  4, 16 / PAGE    24
      NASTRAN DEMONSTRATION PROBLEM NO. D01-01-1C                                                                                   
0     RIGID FORMAT SWITCH FROM 1 TO 3                                                                                               
 
                                              R E A L   E I G E N V A L U E S

   MODE    EXTRACTION       EIGENVALUE            RADIAN              CYCLIC           GENERALIZED         GENERALIZED
    NO.       ORDER                              FREQUENCY           FREQUENCY            MASS              STIFFNESS


                                     ****************************************************************
                                     *                                                              *
                                     *
+                                             NASTRAN INFORMATION MESSAGE 3307, POTENTIALLY         *
                                     *         3 EIGENVALUE(S) AT LOW FREQ. END NOT FOUND           *
                                     *                                                              *
                                     *        (THIS MESSAGE CAN BE SUPPRESSED BY DIAG 37)           *
                                     ****************************************************************

        1         2        6.723435E+04        2.592959E+02        4.126822E+01        2.152179E-02        1.447004E+03             
        2         1        5.589962E+05        7.476605E+02        1.189939E+02        1.856427E-02        1.037735E+04             
        3         3        9.642718E+05        9.819734E+02        1.562859E+02        3.232702E-02        3.117204E+04             
1 DELTA WING              RESTART, REAL EIGENVALUE ANALYSIS             / 95 X86_64 Windows_NT NASTRAN     / SEP  4, 16 / PAGE    25
      NASTRAN DEMONSTRATION PROBLEM NO. D01-01-1C                                                                                   
0     RIGID FORMAT SWITCH FROM 1 TO 3                                                                                               
      EIGENVALUE =  0.672344E+05    (CYCLIC FREQUENCY =  4.126822E+01 HZ)

                                         R E A L   E I G E N V E C T O R   N O .          1
 
      POINT ID.   TYPE          T1             T2             T3             R1             R2             R3
            11      G      0.0           -2.126002E-03  -1.404869E-01   0.0            0.0            0.0                           
            12      G     -2.380934E-03  -1.986459E-03  -1.255237E-01   0.0            0.0            0.0                           
            13      G     -7.566349E-03  -8.059356E-04   0.0            0.0            0.0            0.0                           
            14      G     -1.192881E-02   9.170487E-04   2.499655E-01   0.0            0.0            0.0                           
            15      G     -1.424873E-02   3.114766E-03   6.001409E-01   0.0            0.0            0.0                           
            16      G     -1.370870E-02   4.488355E-03   1.000000E+00   0.0            0.0            0.0                           
            31      G      0.0           -2.383206E-03  -1.084590E-01   0.0            0.0            0.0                           
            32      G     -4.967954E-03  -2.247941E-03  -9.601955E-02   0.0            0.0            0.0                           
            33      G     -1.512899E-02   2.748003E-04   0.0            0.0            0.0            0.0                           
            34      G     -2.205657E-02   4.080209E-03   2.082682E-01   0.0            0.0            0.0                           
            35      G     -2.278525E-02   7.383581E-03   4.999531E-01   0.0            0.0            0.0                           
            36      G     -1.273698E-02   5.256871E-03   8.495917E-01   0.0            0.0            0.0                           
            51      G      0.0           -1.400257E-03  -8.564413E-02   0.0            0.0            0.0                           
            52      G     -4.764391E-03  -1.512712E-03  -7.583518E-02   0.0            0.0            0.0                           
            53      G     -1.411973E-02   7.636525E-04   0.0            0.0            0.0            0.0                           
            54      G     -1.724208E-02   4.683405E-03   1.574458E-01   0.0            0.0            0.0                           
            55      G     -1.023075E-02   4.524913E-03   3.832542E-01   0.0            0.0            0.0                           
            71      G      0.0           -4.633005E-04  -6.750602E-02   0.0            0.0            0.0                           
            72      G     -3.151868E-03  -9.081161E-04  -5.977389E-02   0.0            0.0            0.0                           
            73      G     -8.498784E-03   5.166049E-04   0.0            0.0            0.0            0.0                           
            74      G     -4.989439E-03   1.814979E-03   1.028489E-01   0.0            0.0            0.0                           
            91      G      0.0            7.165898E-04  -5.378563E-02   0.0            0.0            0.0                           
            92      G     -1.182996E-03   2.574043E-05  -4.584268E-02   0.0            0.0            0.0                           
            93      G     -2.268033E-03  -1.039788E-04   0.0            0.0            0.0            0.0                           
1 DELTA WING              RESTART, REAL EIGENVALUE ANALYSIS             / 95 X86_64 Windows_NT NASTRAN     / SEP  4, 16 / PAGE    26
      NASTRAN DEMONSTRATION PROBLEM NO. D01-01-1C                                                                                   
0     RIGID FORMAT SWITCH FROM 1 TO 3                                                                                               
      EIGENVALUE =  0.558996E+06    (CYCLIC FREQUENCY =  1.189939E+02 HZ)

                                         R E A L   E I G E N V E C T O R   N O .          2
 
      POINT ID.   TYPE          T1             T2             T3             R1             R2             R3
            11      G      0.0            8.645833E-04   2.023073E-01   0.0            0.0            0.0                           
            12      G      5.896441E-03   1.062627E-03   1.610193E-01   0.0            0.0            0.0                           
            13      G      3.317416E-03   1.874574E-03   0.0            0.0            0.0            0.0                           
            14      G     -8.778104E-03   9.836215E-03   1.137760E-01   0.0            0.0            0.0                           
            15      G     -1.575714E-02   2.302653E-02   4.789882E-01   0.0            0.0            0.0                           
            16      G     -1.743957E-02   3.417275E-02   1.000000E+00   0.0            0.0            0.0                           
            31      G      0.0            7.119068E-04   1.779780E-01   0.0            0.0            0.0                           
            32      G      7.831063E-03   3.571368E-04   1.554142E-01   0.0            0.0            0.0                           
            33      G      1.390677E-02   3.366259E-03   0.0            0.0            0.0            0.0                           
            34      G      6.477382E-03   2.105945E-02  -1.297440E-01   0.0            0.0            0.0                           
            35      G     -3.057903E-03   4.050216E-02  -1.508573E-01   0.0            0.0            0.0                           
            36      G     -6.444104E-03   3.323865E-02  -5.449877E-02   0.0            0.0            0.0                           
            51      G      0.0           -9.454021E-04   2.035281E-01   0.0            0.0            0.0                           
            52      G      1.058765E-02  -1.448842E-03   1.785601E-01   0.0            0.0            0.0                           
            53      G      2.763466E-02   2.504857E-03   0.0            0.0            0.0            0.0                           
            54      G      2.699525E-02   1.284464E-02  -3.175807E-01   0.0            0.0            0.0                           
            55      G      1.115630E-02   1.379539E-02  -6.674231E-01   0.0            0.0            0.0                           
            71      G      0.0           -1.745220E-03   2.353392E-01   0.0            0.0            0.0                           
            72      G      1.045286E-02  -1.474462E-03   2.049545E-01   0.0            0.0            0.0                           
            73      G      2.911799E-02   2.641284E-04   0.0            0.0            0.0            0.0                           
            74      G      1.723097E-02  -2.042492E-03  -3.946561E-01   0.0            0.0            0.0                           
            91      G      0.0           -2.759459E-03   2.533924E-01   0.0            0.0            0.0                           
            92      G      5.215575E-03  -2.044188E-03   2.123284E-01   0.0            0.0            0.0                           
            93      G      1.088235E-02  -1.810756E-03   0.0            0.0            0.0            0.0                           
1 DELTA WING              RESTART, REAL EIGENVALUE ANALYSIS             / 95 X86_64 Windows_NT NASTRAN     / SEP  4, 16 / PAGE    27
[...]
            41      G      2.093216E+03   0.0            0.0            0.0            0.0            0.0                           
            42      G      2.836663E+04   1.233187E+04   0.0            0.0            0.0            0.0                           
            43      G      2.826912E+04  -2.276254E+03   0.0            0.0            0.0            0.0                           
            44      G     -2.260596E+04  -1.395376E+03   0.0            0.0            0.0            0.0                           
            45      G     -3.629104E+04   2.001956E+04   0.0            0.0            0.0            0.0                           
            51      G     -4.246501E+04   0.0            0.0            0.0            0.0            0.0                           
            53      G      0.0            0.0           -7.880668E+03   0.0            0.0            0.0                           
            61      G      1.192555E+03   0.0            0.0            0.0            0.0            0.0                           
            62      G      1.367428E+04   4.452021E+02   0.0            0.0            0.0            0.0                           
            63      G      3.172351E+03  -4.468418E+03   0.0            0.0            0.0            0.0                           
            64      G     -1.053907E+04   9.274000E+03   0.0            0.0            0.0            0.0                           
            71      G     -1.878592E+04   0.0            0.0            0.0            0.0            0.0                           
            73      G      0.0            0.0           -4.172337E+03   0.0            0.0            0.0                           
            81      G      8.563248E+02   0.0            0.0            0.0            0.0            0.0                           
            82      G     -1.021819E+03  -1.054337E+03   0.0            0.0            0.0            0.0                           
            83      G      2.396662E+02  -4.271332E+03   0.0            0.0            0.0            0.0                           
            91      G     -2.033889E+03   0.0            0.0            0.0            0.0            0.0                           
            93      G      0.0            0.0            9.083665E+02   0.0            0.0            0.0                           
1 DELTA WING              RESTART, REAL EIGENVALUE ANALYSIS             / 95 X86_64 Windows_NT NASTRAN     / SEP  4, 16 / PAGE    31
      NASTRAN DEMONSTRATION PROBLEM NO. D01-01-1C                                                                                   
0     RIGID FORMAT SWITCH FROM 1 TO 3                                                                                               
      EIGENVALUE =  0.672344E+05    (CYCLIC FREQUENCY =  4.126822E+01 HZ)

                     S T R E S S E S   I N   Q U A D R I L A T E R A L   M E M B R A N E S      ( C Q D M E M )
  ELEMENT           STRESSES IN ELEMENT COORD SYSTEM            PRINCIPAL           PRINCIPAL STRESSES            MAX
    ID.           NORMAL-X       NORMAL-Y       SHEAR-XY      STRESS ANGLE         MAJOR          MINOR          SHEAR
        1       -3.928348E+03  -3.564221E+02   1.248677E+02       88.0003      -3.520623E+02  -3.932708E+03   1.790323E+03          
        2       -4.163538E+03  -5.782063E+02   6.833910E+02       79.5662      -4.523639E+02  -4.289380E+03   1.918508E+03          
        3       -3.798429E+03  -5.796652E+02   1.327927E+03       70.2367      -1.025430E+02  -4.275551E+03   2.086504E+03          
        4       -2.464350E+03  -2.172031E+02   1.503064E+03       63.3895       5.358209E+02  -3.217374E+03   1.876597E+03          
        5       -1.052740E+03   1.261035E+02   9.382007E+02       61.0695       6.446702E+02  -1.571307E+03   1.107989E+03          
        6       -5.340443E+03  -9.320784E+02   1.138890E+02       88.5211      -9.291382E+02  -5.343383E+03   2.207123E+03          
        7       -5.436640E+03  -1.207941E+03   9.447131E+02       77.9622      -1.006485E+03  -5.638096E+03   2.315806E+03          
        8       -4.849608E+03  -1.170777E+03   1.827735E+03       67.5912      -4.171121E+02  -5.603272E+03   2.593080E+03          
        9       -2.983321E+03  -4.737026E+02   1.781780E+03       62.5775       4.507734E+02  -3.907797E+03   2.179285E+03          
       11       -4.450100E+03  -1.112152E+03  -2.036215E+01      -89.6505      -1.112028E+03  -4.450224E+03   1.669098E+03          
       12       -4.197533E+03  -1.249820E+03   8.220730E+02       75.4243      -1.036057E+03  -4.411295E+03   1.687619E+03          
       13       -3.126933E+03  -1.044303E+03   1.649810E+03       61.1295      -1.346666E+02  -4.036569E+03   1.950951E+03          
       15       -2.438235E+03  -6.136851E+02  -2.179548E+02      -83.2816      -5.880102E+02  -2.463909E+03   9.379496E+02          
       16       -1.882334E+03  -7.000887E+02   3.151963E+02       75.9664      -6.213049E+02  -1.961118E+03   6.699066E+02          
1 DELTA WING              RESTART, REAL EIGENVALUE ANALYSIS             / 95 X86_64 Windows_NT NASTRAN     / SEP  4, 16 / PAGE    32
      NASTRAN DEMONSTRATION PROBLEM NO. D01-01-1C                                                                                   
0     RIGID FORMAT SWITCH FROM 1 TO 3                                                                                               
      EIGENVALUE =  0.672344E+05    (CYCLIC FREQUENCY =  4.126822E+01 HZ)

                                        S T R E S S E S   I N   S H E A R   P A N E L S      ( C S H E A R )
         ELEMENT            MAX            AVG        SAFETY         ELEMENT            MAX            AVG        SAFETY
           ID.             SHEAR          SHEAR       MARGIN           ID.             SHEAR          SHEAR       MARGIN
              18        1.781992E+02   1.781992E+02                       19        8.428970E+02   8.428970E+02                     
              20        1.707920E+03   1.707920E+03                       21        2.436383E+03   2.436383E+03                     
              22        1.439719E+03   1.439719E+03                       28        1.412500E+01  -1.412500E+01                     
              29        4.382222E+02  -4.382222E+02                       30        2.324891E+03   1.801990E+03                     
              31        4.874270E+03   2.867159E+03                       35        2.929629E+02   2.929629E+02                     
              36        7.505029E+02   7.505029E+02                       41        1.835925E+03  -1.069231E+03                     
              42        1.119157E+03   9.494607E+02                       43        1.379390E+03   1.170235E+03                     
              44        1.428467E+03   8.319305E+02                       50        9.914922E+02  -9.914922E+02                     
1 DELTA WING              RESTART, REAL EIGENVALUE ANALYSIS             / 95 X86_64 Windows_NT NASTRAN     / SEP  4, 16 / PAGE    33
      NASTRAN DEMONSTRATION PROBLEM NO. D01-01-1C                                                                                   
0     RIGID FORMAT SWITCH FROM 1 TO 3                                                                                               
      EIGENVALUE =  0.672344E+05    (CYCLIC FREQUENCY =  4.126822E+01 HZ)

                      S T R E S S E S   I N   T R I A N G U L A R   M E M B R A N E S      ( C T R M E M )
  ELEMENT           STRESSES IN ELEMENT COORD SYSTEM            PRINCIPAL           PRINCIPAL STRESSES            MAX
    ID.           NORMAL-X       NORMAL-Y       SHEAR-XY      STRESS ANGLE         MAJOR          MINOR          SHEAR
       10       -1.572674E+03   5.980713E+01   6.329380E+02       71.1044       2.764553E+02  -1.789322E+03   1.032889E+03          
       14       -2.727710E+03  -8.951207E+02   7.321182E+02       70.6876      -6.385586E+02  -2.984272E+03   1.172857E+03          
       17       -1.695275E+03  -8.327285E+02   2.747162E+02       73.7517      -7.526647E+02  -1.775339E+03   5.113371E+02          
1 DELTA WING              RESTART, REAL EIGENVALUE ANALYSIS             / 95 X86_64 Windows_NT NASTRAN     / SEP  4, 16 / PAGE    34
      NASTRAN DEMONSTRATION PROBLEM NO. D01-01-1C                                                                                   
0     RIGID FORMAT SWITCH FROM 1 TO 3                                                                                               
      EIGENVALUE =  0.558996E+06    (CYCLIC FREQUENCY =  1.189939E+02 HZ)

                     S T R E S S E S   I N   Q U A D R I L A T E R A L   M E M B R A N E S      ( C Q D M E M )
  ELEMENT           STRESSES IN ELEMENT COORD SYSTEM            PRINCIPAL           PRINCIPAL STRESSES            MAX
    ID.           NORMAL-X       NORMAL-Y       SHEAR-XY      STRESS ANGLE         MAJOR          MINOR          SHEAR
        1        7.617598E+03   1.597654E+03  -6.030215E+02       -5.6644       7.677408E+03   1.537844E+03   3.069782E+03          
        2        1.037475E+03   4.277937E+02  -2.636224E+02      -20.4264       1.135654E+03   3.296150E+02   4.030195E+02          
        3       -5.151695E+03  -1.405447E+03   5.206245E+03       54.8940       2.254382E+03  -8.811525E+03   5.532954E+03          
        4       -5.190037E+03  -2.711564E+03   8.391412E+03       49.2003       4.531622E+03  -1.243322E+04   8.482423E+03          
        5       -3.474691E+03  -2.195438E+03   7.292520E+03       47.5063       4.485452E+03  -1.015558E+04   7.320517E+03          
        6        1.031169E+04   2.446530E+03  -8.609344E+01       -0.6271       1.031263E+04   2.445587E+03   3.933523E+03          
        7        6.417610E+03   1.352352E+03   1.676446E+03       16.7511       6.922197E+03   8.477649E+02   3.037216E+03          
        8        1.692100E+02  -2.308703E+03   6.177419E+03       39.3296       5.230691E+03  -7.370185E+03   6.300438E+03          
        9       -3.460820E+03  -5.654696E+03   8.615528E+03       41.3720       4.127321E+03  -1.324284E+04   8.685079E+03          
       11        1.185268E+04   3.038728E+03   1.613629E+02        1.0485       1.185564E+04   3.035774E+03   4.409931E+03          
       12        9.964059E+03   2.263006E+03   1.470818E+03       10.4529       1.023541E+04   1.991656E+03   4.121876E+03          
       13        5.006688E+03  -1.951134E+03   2.815582E+03       19.4921       6.003302E+03  -2.947748E+03   4.475525E+03          
       15        8.687808E+03   1.800749E+03   5.299089E+02        4.3742       8.728342E+03   1.760215E+03   3.484063E+03          
       16        6.688317E+03   1.206742E+03   3.529723E+02        3.6692       6.710952E+03   1.184106E+03   2.763423E+03          
1 DELTA WING              RESTART, REAL EIGENVALUE ANALYSIS             / 95 X86_64 Windows_NT NASTRAN     / SEP  4, 16 / PAGE    35
      NASTRAN DEMONSTRATION PROBLEM NO. D01-01-1C                                                                                   
0     RIGID FORMAT SWITCH FROM 1 TO 3                                                                                               
      EIGENVALUE =  0.558996E+06    (CYCLIC FREQUENCY =  1.189939E+02 HZ)

                                        S T R E S S E S   I N   S H E A R   P A N E L S      ( C S H E A R )
         ELEMENT            MAX            AVG        SAFETY         ELEMENT            MAX            AVG        SAFETY
           ID.             SHEAR          SHEAR       MARGIN           ID.             SHEAR          SHEAR       MARGIN
              18        2.134027E+03  -2.134027E+03                       19        9.726455E+03  -9.726455E+03                     
              20        9.226162E+03   9.226162E+03                       21        9.683559E+03   9.683559E+03                     
              22        1.095267E+04   1.095267E+04                       28        1.239215E+03  -1.239215E+03                     
              29        4.125848E+03  -4.125848E+03                       30        1.571767E+04  -1.218254E+04                     
              31        2.400693E+04  -1.412144E+04                       35        3.710410E+03  -3.710410E+03                     
              36        3.198342E+03  -3.198342E+03                       41        1.814234E+04   1.056599E+04                     
              42        6.324479E+03   5.365504E+03                       43        2.988593E+03   2.535436E+03                     
              44        5.347997E+03  -3.114640E+03                       50        9.669737E+03  -9.669737E+03                     
1 DELTA WING              RESTART, REAL EIGENVALUE ANALYSIS             / 95 X86_64 Windows_NT NASTRAN     / SEP  4, 16 / PAGE    36
      NASTRAN DEMONSTRATION PROBLEM NO. D01-01-1C                                                                                   
0     RIGID FORMAT SWITCH FROM 1 TO 3                                                                                               
      EIGENVALUE =  0.558996E+06    (CYCLIC FREQUENCY =  1.189939E+02 HZ)

                      S T R E S S E S   I N   T R I A N G U L A R   M E M B R A N E S      ( C T R M E M )
  ELEMENT           STRESSES IN ELEMENT COORD SYSTEM            PRINCIPAL           PRINCIPAL STRESSES            MAX
    ID.           NORMAL-X       NORMAL-Y       SHEAR-XY      STRESS ANGLE         MAJOR          MINOR          SHEAR
       10       -5.626766E+03  -6.640203E+03   4.620318E+03       41.8706      -1.485462E+03  -1.078151E+04   4.648022E+03          
       14       -5.415364E+02  -5.902617E+03   2.529035E+03       21.6671       4.632068E+02  -6.907360E+03   3.685283E+03          
       17        6.637785E+03   9.103848E+02   6.071995E+02        5.9857       6.701450E+03   8.467192E+02   2.927365E+03          
1 DELTA WING              RESTART, REAL EIGENVALUE ANALYSIS             / 95 X86_64 Windows_NT NASTRAN     / SEP  4, 16 / PAGE    37
      NASTRAN DEMONSTRATION PROBLEM NO. D01-01-1C                                                                                   
0     RIGID FORMAT SWITCH FROM 1 TO 3                                                                                               
      EIGENVALUE =  0.964272E+06    (CYCLIC FREQUENCY =  1.562859E+02 HZ)

                     S T R E S S E S   I N   Q U A D R I L A T E R A L   M E M B R A N E S      ( C Q D M E M )
  ELEMENT           STRESSES IN ELEMENT COORD SYSTEM            PRINCIPAL           PRINCIPAL STRESSES            MAX
    ID.           NORMAL-X       NORMAL-Y       SHEAR-XY      STRESS ANGLE         MAJOR          MINOR          SHEAR
        1        2.164712E+04   5.891172E+02  -4.522461E+01       -0.1230       2.164721E+04   5.890195E+02   1.052910E+04          
        2        7.707647E+03  -3.483945E+02  -1.096513E+04      -34.9146       1.536120E+04  -8.001946E+03   1.168157E+04          
        3       -1.215394E+04   7.314639E+02  -1.286716E+04      -58.2988       8.678768E+03  -2.010124E+04   1.439001E+04          
        4       -2.455272E+04   1.967596E+03  -4.904948E+03      -79.8503       2.845694E+03  -2.543082E+04   1.413826E+04          
        5       -1.479050E+04   4.395424E+03   1.516180E+03       85.5093       4.514502E+03  -1.490957E+04   9.712038E+03          
        6        1.709962E+04  -7.319297E+02  -1.635386E+02       -0.5254       1.710112E+04  -7.334297E+02   8.917277E+03          
        7        4.238005E+03  -1.463993E+03  -8.100152E+03      -35.3048       9.974244E+03  -7.200232E+03   8.587238E+03          
        8       -1.389741E+04   1.574491E+03  -8.228191E+03      -66.6169       5.132258E+03  -1.745518E+04   1.129372E+04          
        9       -1.915297E+04   5.521926E+03  -1.238902E+03      -87.1329       5.583974E+03  -1.921502E+04   1.239950E+04          
       11        8.861748E+03  -3.372985E+02   2.853027E+00        0.0178       8.861749E+03  -3.372998E+02   4.599524E+03          
       12        7.728629E+02  -1.374092E+03  -3.095222E+03      -35.4363       2.975473E+03  -3.576702E+03   3.276088E+03          
       13       -8.183075E+03   5.876591E+02  -9.963155E+02      -83.6001       6.994119E+02  -8.294827E+03   4.497120E+03          
       15        3.338468E+03  -2.686414E+01   1.520586E+02        2.5818       3.345324E+03  -3.372058E+01   1.689522E+03          
       16        4.994500E+02  -6.995001E+02  -5.708535E+02      -21.7995       7.277697E+02  -9.278197E+02   8.277947E+02          
1 DELTA WING              RESTART, REAL EIGENVALUE ANALYSIS             / 95 X86_64 Windows_NT NASTRAN     / SEP  4, 16 / PAGE    38
      NASTRAN DEMONSTRATION PROBLEM NO. D01-01-1C                                                                                   
0     RIGID FORMAT SWITCH FROM 1 TO 3                                                                                               
      EIGENVALUE =  0.964272E+06    (CYCLIC FREQUENCY =  1.562859E+02 HZ)

                                        S T R E S S E S   I N   S H E A R   P A N E L S      ( C S H E A R )
         ELEMENT            MAX            AVG        SAFETY         ELEMENT            MAX            AVG        SAFETY
           ID.             SHEAR          SHEAR       MARGIN           ID.             SHEAR          SHEAR       MARGIN
              18        1.703333E+04  -1.703333E+04                       19        1.853834E+04  -1.853834E+04                     
              20        2.670429E+04  -2.670429E+04                       21        8.826703E+03  -8.826703E+03                     
              22        1.508276E+04   1.508276E+04                       28        2.990309E+03  -2.990309E+03                     
              29        1.876672E+04  -1.876672E+04                       30        1.921851E+03  -1.489599E+03                     
              31        4.183402E+04   2.460775E+04                       35        1.223320E+03  -1.223320E+03                     
              36        1.341532E+03   1.341532E+03                       41        8.185649E+03  -4.767272E+03                     
              42        3.306810E+01  -2.805401E+01                       43        1.980923E+03   1.680558E+03                     
              44        3.789296E+03   2.206863E+03                       50        8.694922E+02   8.694922E+02                     
1 DELTA WING              RESTART, REAL EIGENVALUE ANALYSIS             / 95 X86_64 Windows_NT NASTRAN     / SEP  4, 16 / PAGE    39
      NASTRAN DEMONSTRATION PROBLEM NO. D01-01-1C                                                                                   
0     RIGID FORMAT SWITCH FROM 1 TO 3                                                                                               
      EIGENVALUE =  0.964272E+06    (CYCLIC FREQUENCY =  1.562859E+02 HZ)

                      S T R E S S E S   I N   T R I A N G U L A R   M E M B R A N E S      ( C T R M E M )
  ELEMENT           STRESSES IN ELEMENT COORD SYSTEM            PRINCIPAL           PRINCIPAL STRESSES            MAX
    ID.           NORMAL-X       NORMAL-Y       SHEAR-XY      STRESS ANGLE         MAJOR          MINOR          SHEAR
       10       -1.619404E+04   7.009210E+03   4.981309E+02       88.7707       7.019900E+03  -1.620472E+04   1.161231E+04          
       14       -1.304488E+04   2.014223E+03  -3.110193E+01      -89.8817       2.014288E+03  -1.304495E+04   7.529619E+03          
       17       -4.209823E+03  -1.804497E+03  -2.506312E+02      -84.1141      -1.778659E+03  -4.235661E+03   1.228501E+03          




                                        * * * END OF JOB * * *
1
 JOB TITLE =  DELTA WING              RESTART, REAL EIGENVALUE ANALYSIS          
 DATE:  9/ 4/16
 END TIME: 22:26:56
 TOTAL WALL CLOCK TIME      0 SEC.
 
