     NASTRAN FILES = PLT2                                                            






                                  ****
                                *      *
                               *        *
                               *  N A S T R A N
                               *        *
                                *      *
                                  ****


                           X86_64 COMPUTER SYSTEMS   
                              Windows_NT VERSION  

                          SYSTEM RELEASE -  1995 ED.

                                DISTRIBUTED BY

         COMPUTER SOFTWARE MANAGEMENT AND INFORMATION CENTER (COSMIC)
                 UNIVERSITY OF GEORGIA, ATHENS, GEORGIA 30602
                 PHONE: (706)542-3265      FAX: (706)542-4807
1                                                                       / 95 X86_64 Windows_NT NASTRAN     / DEC 27, 16 / PAGE     2
                                                                                                                                    
0                                                                                                                                   
                                                                                                         
                                                                                                         
                         INSTALLATION CENTER USER INFORMATION GIVEN IN THIS SECTION                      
                                                                                                         
                                     *********************************************                       
                                     *                                           *                       
                                     *  PLEASE READ THE COMMENT IN DEMO PROBLEM  *                       
                                     *  D01002A ABOUT SYSTEM TIMING CONSTANTS    *                       
                                     *                                           *                       
                                     *********************************************                       
                                                                                                         
                         ===X=    TOP OF PAGE REQUEST IF 'X' IS REPLACED BY '='                          
                                                                                                         
1                                                                       / 95 X86_64 Windows_NT NASTRAN     / DEC 27, 16 / PAGE     3
                                                                                                                                    
0                                                                                                                                   
0*** USER INFORMATION MESSAGE 225, GINO TIME CONSTANTS ARE BEING COMPUTED
     (SEE NASINFO FILE FOR ELIMINATION OF THESE COMPUTATIONS)
1                                                                       / 95 X86_64 Windows_NT NASTRAN     / DEC 27, 16 / PAGE     4
                                                                                                                                    
0        N A S T R A N    E X E C U T I V E    C O N T R O L    D E C K    E C H O                                                  
0                                                                                                                                   
                                                                                                                                    
                                                                                                                                    
     ID    T16011A,NASTRAN                                                           
     APP   DISPLACEMENT                                                              
     SOL   16                                                                        
     DIAG  14                                                                        
     TIME  20                                                                        
     CEND                                                                            
1 STATIC AEROTHERMOELASTIC ANALYSIS OF A ROTOR BLADE                    / 95 X86_64 Windows_NT NASTRAN     / DEC 27, 16 / PAGE     5
      NASTRAN TEST PROBLEM NO. T16-01-1A                                                                                            
0                                                                                                                                   
0                                        C A S E    C O N T R O L   D E C K   E C H O                                               
                 CARD                                                                                                               
                 COUNT                                                                                                              
                  1      TITLE    = STATIC AEROTHERMOELASTIC ANALYSIS OF A ROTOR BLADE                   
                  2      SUBTITLE = NASTRAN TEST PROBLEM NO. T16-01-1A                                   
                  3      SPC    = 500                                                                    
                  4      MPC    = 600                                                                    
                  5      LOAD   = 1                                                                      
                  6      DISP   = ALL                                                                    
                  7      SPCF   = ALL                                                                    
                  8      OLOAD  = ALL                                                                    
                  9      STRESS = ALL                                                                    
                 10      FORCE  = ALL                                                                    
                 11      SUBCASE 1                                                                       
                 12      LABEL  = LINEAR SOLUTION OF ROTOR BLADE                                         
                 13      SUBCASE 2                                                                       
                 14      LABEL  = NONLINEAR SOLUTION OF ROTOR BLADE                                      
                 15      GPFORCE= ALL                                                                    
                 16      OUTPUT(PLOT)                                                                    
                 17      PLOTTER NASTPLT D,0                                                             
                 18      PAPER SIZE 10.0 X 10.0                                                          
                 19      SET 1  = ALL                                                                    
                 20      ORTHOGRAPHIC PROJECTION                                                         
                 21      MAXIMUM DEFORMATION 0.5                                                         
                 22      AXES X,Y,Z                                                                      
                 23      VIEW 0.0,0.0,0.0                                                                
                 24      FIND SCALE, ORIGIN 1, SET 1                                                     
                 25      PLOT SET 1, ORIGIN 1, LABEL                                                     
                 26      AXES Y,Z,X                                                                      
                 27      FIND SCALE, ORIGIN 2, SET 1                                                     
                 28      PLOT SET 1, ORIGIN 2, LABEL                                                     
                 29      AXES Z,X,Y                                                                      
                 30      FIND SCALE, ORIGIN 3, SET 1                                                     
                 31      PLOT SET 1, ORIGIN 3, LABEL                                                     
                 32      AXES X,Y,Z                                                                      
                 33      VIEW 34.27,23.17,0.0                                                            
                 34      FIND SCALE, ORIGIN 4, SET 1                                                     
                 35      PLOT STATIC DEFORMATION 0,   SET 1, ORIGIN 4, LABEL                             
                 36      AXES Z,X,Y                                                                      
                 37      VIEW 0.0,0.0,0.0                                                                
                 38      FIND SCALE, ORIGIN 5, SET 1                                                     
                 39      PLOT STATIC DEFORMATION 0,   SET 1, ORIGIN 5, LABEL                             
                 40      BEGIN BULK                                                                      


                        (NO. OF UNSORTED BULK DATA CARDS READ =   510, INCLUDING   0 COMMENT CARDS)
0*** USER INFORMATION MESSAGE 207, BULK DATA DECK IS NOT SORTED. NASTRAN WILL RE-ORDER THE INPUT DECK.
1 STATIC AEROTHERMOELASTIC ANALYSIS OF A ROTOR BLADE                    / 95 X86_64 Windows_NT NASTRAN     / DEC 27, 16 / PAGE     6
      NASTRAN TEST PROBLEM NO. T16-01-1A                                                                                            
0                                                                                                                                   
0                                                 S O R T E D   B U L K    D A T A    E C H O                                       
                     CARD                                                                                                           
                     COUNT        ---1--- +++2+++ ---3--- +++4+++ ---5--- +++6+++ ---7--- +++8+++ ---9--- +++10+++                  
                    1-        CHEXA1  201     1       101     103     104     108     113     115     +CH1    
                    2-        +CH1    116     120                                                             
                    3-        CHEXA1  202     1       108     104     105     107     120     116     +CH2    
                    4-        +CH2    117     119                                                             
                    5-        CHEXA1  203     1       121     123     124     128     101     103     +CH3    
                    6-        +CH3    104     108                                                             
                    7-        CHEXA1  204     1       128     124     125     127     108     104     +CH4    
                    8-        +CH4    105     107                                                             
                    9-        CORD2C  1               0.      0.      0.      1.0     0.      0.      +CD1    
                   10-        +CD1    0.      0.      1.                                                      
                   11-        CTRIA2  1       2000    1       5       4                                       
                   12-        CTRIA2  2       2000    1       2       5                                       
                   13-        CTRIA2  3       2005    2       6       5                                       
                   14-        CTRIA2  4       2005    2       3       6                                       
                   15-        CTRIA2  5       2010    4       8       7                                       
                   16-        CTRIA2  6       2010    4       5       8                                       
                   17-        CTRIA2  7       2015    5       9       8                                       
                   18-        CTRIA2  8       2015    5       6       9                                       
                   19-        CTRIA2  9       2020    7       11      10                                      
                   20-        CTRIA2  10      2020    7       8       11                                      
                   21-        CTRIA2  11      2025    8       12      11                                      
                   22-        CTRIA2  12      2025    8       9       12                                      
                   23-        DTI     ALGDB   0       135     0       0       0       0       0       +AL    0
                   24-        +AL    0ENDREC                                                          +AL    1
                   25-        DTI     ALGDB   1       NASA LEWIS EXPERIMENTAL FAN                     +AL    2
                   26-        +AL    2                        ENDREC                                  +AL    3
                   27-        DTI     ALGDB   2       1       1       0       0       0       0       +AL    4
                   28-        +AL    40       0       0       0       0       0       0       0       +AL    5
                   29-        +AL    50       0       0       0       0       0       0       0       +AL    6
                   30-        +AL    60       0       ENDREC                                          +AL    7
                   31-        DTI     ALGDB   3       GRID GENERATION                                 +AL    8
                   32-        +AL    8                        ENDREC                                  +AL    9
                   33-        DTI     ALGDB   4       4       5       3       4       30      43      +AL   10
                   34-        +AL   102       0       2       1       0       3       0       0       +AL   11
                   35-        +AL   112       4       1       0       0       0       0       0       +AL   12
                   36-        +AL   120       0       ENDREC                                          +AL   13
                   37-        DTI*    ALGDB           5               0.438399982E01  0.999999905E01  +AL   14
                   38-        *AL   140.999999940E00  0               0.109999990E02  0               +AL   15
                   39-        +AL   15ENDREC                                                          +AL   16
                   40-        DTI     ALGDB   6       2       0       0       0       0       0       +AL   17
                   41-        +AL   170       0       0       0       0       0       0       0       +AL   18
                   42-        +AL   180       0       0       0       0       0       0       0       +AL   19
                   43-        +AL   190       0       ENDREC                                          +AL   20
                   44-        DTI*    ALGDB           7               -0.199999905E01 0.359999943E01  +AL   21
                   45-        *AL   210               0               0               0               +AL   22
                   46-        +AL   22ENDREC                                                          +AL   23
                   47-        DTI*    ALGDB           8               -0.199999905E01 0.100400000E02  +AL   24
1 STATIC AEROTHERMOELASTIC ANALYSIS OF A ROTOR BLADE                    / 95 X86_64 Windows_NT NASTRAN     / DEC 27, 16 / PAGE     7
      NASTRAN TEST PROBLEM NO. T16-01-1A                                                                                            

                                                                                                                                    

                                                  S O R T E D   B U L K    D A T A    E C H O                                       
                     CARD                                                                                                           
                     COUNT        ---1--- +++2+++ ---3--- +++4+++ ---5--- +++6+++ ---7--- +++8+++ ---9--- +++10+++                  
                   48-        *AL   240               0               0               0               +AL   25
                   49-        +AL   25ENDREC                                                          +AL   26
                   50-        DTI*    ALGDB           9               0.359999943E01  0               +AL   27
                   51-        *AL   270               0               0               0               +AL   28
                   52-        +AL   28ENDREC                                                          +AL   29
                   53-        DTI*    ALGDB           10              0.549999905E01  0               +AL   30
                   54-        *AL   300               0               0               0               +AL   31
                   55-        +AL   31ENDREC                                                          +AL   32
                   56-        DTI*    ALGDB           11              0.739999962E01  0               +AL   33
                   57-        *AL   330               0               0               0               +AL   34
                   58-        +AL   34ENDREC                                                          +AL   35
                   59-        DTI*    ALGDB           12              0.100400000E02  0               +AL   36
                   60-        *AL   360               0               0               0               +AL   37
                   61-        +AL   37ENDREC                                                          +AL   38
                   62-        DTI     ALGDB   13      4       1       ENDREC                          +AL   39
                   63-        DTI*    ALGDB           14              -0.898070633E00 0.378958511E01  +AL   40
                   64-        *AL   40ENDREC                                                          +AL   41
                   65-        DTI*    ALGDB           15              -0.765281737E00 0.547675800E01  +AL   42
                   66-        *AL   42ENDREC                                                          +AL   43
                   67-        DTI*    ALGDB           16              -0.638598502E00 0.736359024E01  +AL   44
                   68-        *AL   44ENDREC                                                          +AL   45
                   69-        DTI*    ALGDB           17              -0.405804217E00 0.995540905E01  +AL   46
                   70-        *AL   46ENDREC                                                          +AL   47
                   71-        DTI*    ALGDB           18              0.378958511E01  0               +AL   48
                   72-        *AL   48ENDREC                                                          +AL   49
                   73-        DTI*    ALGDB           19              0.547675800E01  0               +AL   50
                   74-        *AL   50ENDREC                                                          +AL   51
                   75-        DTI*    ALGDB           20              0.736359024E01  0               +AL   52
                   76-        *AL   52ENDREC                                                          +AL   53
                   77-        DTI*    ALGDB           21              0.995540905E01  0               +AL   54
                   78-        *AL   54ENDREC                                                          +AL   55
                   79-        DTI     ALGDB   22      4       1       ENDREC                          +AL   56
                   80-        DTI*    ALGDB           23              -0.707454019E-040.399898529E01  +AL   57
                   81-        *AL   57ENDREC                                                          +AL   58
                   82-        DTI*    ALGDB           24              -0.459544128E-030.549857426E01  +AL   59
                   83-        *AL   59ENDREC                                                          +AL   60
                   84-        DTI*    ALGDB           25              -0.911400467E-020.739762974E01  +AL   61
                   85-        *AL   61ENDREC                                                          +AL   62
                   86-        DTI*    ALGDB           26              -0.106336363E-010.999707603E01  +AL   63
                   87-        *AL   63ENDREC                                                          +AL   64
                   88-        DTI*    ALGDB           27              0.399898529E01  0               +AL   65
                   89-        *AL   65ENDREC                                                          +AL   66
                   90-        DTI*    ALGDB           28              0.549857426E01  0               +AL   67
                   91-        *AL   67ENDREC                                                          +AL   68
                   92-        DTI*    ALGDB           29              0.739762974E01  0               +AL   69
                   93-        *AL   69ENDREC                                                          +AL   70
                   94-        DTI*    ALGDB           30              0.999707603E01  0               +AL   71
1 STATIC AEROTHERMOELASTIC ANALYSIS OF A ROTOR BLADE                    / 95 X86_64 Windows_NT NASTRAN     / DEC 27, 16 / PAGE     8
      NASTRAN TEST PROBLEM NO. T16-01-1A                                                                                            

                                                                                                                                    

                                                  S O R T E D   B U L K    D A T A    E C H O                                       
                     CARD                                                                                                           
                     COUNT        ---1--- +++2+++ ---3--- +++4+++ ---5--- +++6+++ ---7--- +++8+++ ---9--- +++10+++                  
                   95-        *AL   71ENDREC                                                          +AL   72
                   96-        DTI     ALGDB   31      4       1       ENDREC                          +AL   73
                   97-        DTI*    ALGDB           32              0.897929192E00  0.419198513E01  +AL   74
                   98-        *AL   74ENDREC                                                          +AL   75
                   99-        DTI*    ALGDB           33              0.779861093E00  0.549377537E01  +AL   76
                  100-        *AL   76ENDREC                                                          +AL   77
                  101-        DTI*    ALGDB           34              0.623993874E00  0.736712265E01  +AL   78
                  102-        *AL   78ENDREC                                                          +AL   79
                  103-        DTI*    ALGDB           35              0.413974285E00  0.996370506E01  +AL   80
                  104-        *AL   80ENDREC                                                          +AL   81
                  105-        DTI*    ALGDB           36              0.419198513E01  0               +AL   82
                  106-        *AL   82ENDREC                                                          +AL   83
                  107-        DTI*    ALGDB           37              0.549377537E01  0               +AL   84
                  108-        *AL   84ENDREC                                                          +AL   85
                  109-        DTI*    ALGDB           38              0.736712265E01  0               +AL   86
                  110-        *AL   86ENDREC                                                          +AL   87
                  111-        DTI*    ALGDB           39              0.996370506E01  0               +AL   88
                  112-        *AL   88ENDREC                                                          +AL   89
                  113-        DTI     ALGDB   40      2       0       0       0       0       0       +AL   90
                  114-        +AL   900       0       0       0       0       0       0       0       +AL   91
                  115-        +AL   910       0       0       0       0       0       0       0       +AL   92
                  116-        +AL   920       0       ENDREC                                          +AL   93
                  117-        DTI*    ALGDB           41              0.199999905E01  0.439999962E01  +AL   94
                  118-        *AL   940               0               0               0               +AL   95
                  119-        +AL   95ENDREC                                                          +AL   96
                  120-        DTI*    ALGDB           42              0.199999905E01  0.100400000E02  +AL   97
                  121-        *AL   970               0               0               0               +AL   98
                  122-        +AL   98ENDREC                                                          +AL   99
                  123-        DTI*    ALGDB           43              0.439999962E01  0               +AL  100
                  124-        *AL  1000               0               0               0               +AL  101
                  125-        +AL  101ENDREC                                                          +AL  102
                  126-        DTI*    ALGDB           44              0.549999905E01  0               +AL  103
                  127-        *AL  1030               0               0               0               +AL  104
                  128-        +AL  104ENDREC                                                          +AL  105
                  129-        DTI*    ALGDB           45              0.739999962E01  0               +AL  106
                  130-        *AL  1060               0               0               0               +AL  107
                  131-        +AL  107ENDREC                                                          +AL  108
                  132-        DTI*    ALGDB           46              0.100400000E02  0               +AL  109
                  133-        *AL  1090               0               0               0               +AL  110
                  134-        +AL  110ENDREC                                                          +AL  111
                  135-        DTI*    ALGDB           47              0.999999940E00  -0.381756897E02 +AL  112
                  136-        *AL  1120.329245758E02  0               0               0.161499977E-01 +AL  113
                  137-        +AL  113ENDREC                                                          +AL  114
                  138-        DTI*    ALGDB           48              0.979999900E-01 0.155899972E-01 +AL  115
                  139-        *AL  1150.559999943E00  0.179599857E01  0.471492521E-01 -0.222556889E-01+AL  116
                  140-        +AL  116ENDREC                                                          +AL  117
                  141-        DTI*    ALGDB           49              0.199999905E01  -0.437350769E02 +AL  118
1 STATIC AEROTHERMOELASTIC ANALYSIS OF A ROTOR BLADE                    / 95 X86_64 Windows_NT NASTRAN     / DEC 27, 16 / PAGE     9
      NASTRAN TEST PROBLEM NO. T16-01-1A                                                                                            

                                                                                                                                    

                                                  S O R T E D   B U L K    D A T A    E C H O                                       
                     CARD                                                                                                           
                     COUNT        ---1--- +++2+++ ---3--- +++4+++ ---5--- +++6+++ ---7--- +++8+++ ---9--- +++10+++                  
                  142-        *AL  118-0.468236637E 010               0               0.124260001E-01 +AL  119
                  143-        +AL  119ENDREC                                                          +AL  120
                  144-        DTI*    ALGDB           50              0.734763145E-01 0.135056563E-01 +AL  121
                  145-        *AL  1210.539999962E00  0.185159492E01  0.676045194E-02 -0.272210650E-01+AL  122
                  146-        +AL  122ENDREC                                                          +AL  123
                  147-        DTI*    ALGDB           51              0.299999905E01  -0.524065857E02 +AL  124
                  148-        *AL  124-0.400783386E 020               0               0.912010297E-02 +AL  125
                  149-        +AL  125ENDREC                                                          +AL  126
                  150-        DTI*    ALGDB           52              0.360004082E-01 0.966010615E-02 +AL  127
                  151-        *AL  1270.489999950E00  0.186397648E01  -0.834399834E-020.131941922E-01 +AL  128
                  152-        +AL  128ENDREC                                                          +AL  129
                  153-        DTI*    ALGDB           53              0.399999905E01  -0.724938965E02 +AL  130
                  154-        *AL  130-0.592066498E 020               0               0.482162833E-02 +AL  131
                  155-        +AL  131ENDREC                                                          +AL  132
                  156-        DTI*    ALGDB           54              0.268090703E-01 0.429144874E-02 +AL  133
                  157-        *AL  1330.479999959E00  0.186236858E01  -0.373036265E-010.498055629E-01 +AL  134
                  158-        +AL  134ENDREC                                                          +AL  135
                  159-        DTI     ALGDB   55      1       5       1       2       2       4       +AL  136
                  160-        +AL  1360       0       0       0       0       0       0       0       +AL  137
                  161-        +AL  1370       0       0       0       0       0       0       0       +AL  138
                  162-        +AL  1380       0       ENDREC                                          +AL  139
                  163-        DTI*    ALGDB           56              0.999999940E00  0.160427969E05  +AL  140
                  164-        *AL  1400               0               0               0               +AL  141
                  165-        +AL  141ENDREC                                                          +AL  142
                  166-        DTI     ALGDB   57      0       0       10      0       0       0       +AL  143
                  167-        +AL  1430       0       0       0       0       0       0       0       +AL  144
                  168-        +AL  1440       0       0       0       0       0       0       0       +AL  145
                  169-        +AL  1450       0       ENDREC                                          +AL  146
                  170-        DTI     ALGDB   58      1       0       0       4       -1      -1      +AL  147
                  171-        +AL  1470       1       0       0       0       0       0       -43     +AL  148
                  172-        +AL  1480       0       0       0       0       0       0       0       +AL  149
                  173-        +AL  1490       0       ENDREC                                          +AL  150
                  174-        DTI     ALGDB   59      0       0       0       0       0       0       +AL  151
                  175-        +AL  1510       0       0       0       0       0       0       0       +AL  152
                  176-        +AL  1520       0       0       0       0       0       0       0       +AL  153
                  177-        +AL  1530       0       ENDREC                                          +AL  154
                  178-        DTI     ALGDB   60      8       0       0       1       -2      -2      +AL  155
                  179-        +AL  155-1      0       0       2       0       0       20      -43     +AL  156
                  180-        +AL  1560       0       0       0       0       0       0       0       +AL  157
                  181-        +AL  1570       0       ENDREC                                          +AL  158
                  182-        DTI*    ALGDB           61              0.419999981E01  0.499999970E-01 +AL  159
                  183-        *AL  1590               0               0               0               +AL  160
                  184-        +AL  160ENDREC                                                          +AL  161
                  185-        DTI*    ALGDB           62              0.461999989E01  0.499999970E-01 +AL  162
                  186-        *AL  1620               0               0               0               +AL  163
                  187-        +AL  163ENDREC                                                          +AL  164
                  188-        DTI*    ALGDB           63              0.549999905E01  0.499999970E-01 +AL  165
1 STATIC AEROTHERMOELASTIC ANALYSIS OF A ROTOR BLADE                    / 95 X86_64 Windows_NT NASTRAN     / DEC 27, 16 / PAGE    10
      NASTRAN TEST PROBLEM NO. T16-01-1A                                                                                            

                                                                                                                                    

                                                  S O R T E D   B U L K    D A T A    E C H O                                       
                     CARD                                                                                                           
                     COUNT        ---1--- +++2+++ ---3--- +++4+++ ---5--- +++6+++ ---7--- +++8+++ ---9--- +++10+++                  
                  189-        *AL  1650               0               0               0               +AL  166
                  190-        +AL  166ENDREC                                                          +AL  167
                  191-        DTI*    ALGDB           64              0.649999905E01  0.499999970E-01 +AL  168
                  192-        *AL  1680               0               0               0               +AL  169
                  193-        +AL  169ENDREC                                                          +AL  170
                  194-        DTI*    ALGDB           65              0.739999962E01  0.499999970E-01 +AL  171
                  195-        *AL  1710               0               0               0               +AL  172
                  196-        +AL  172ENDREC                                                          +AL  173
                  197-        DTI*    ALGDB           66              0.839999962E01  0.499999970E-01 +AL  174
                  198-        *AL  1740               0               0               0               +AL  175
                  199-        +AL  175ENDREC                                                          +AL  176
                  200-        DTI*    ALGDB           67              0.949999905E01  0.499999970E-01 +AL  177
                  201-        *AL  1770               0               0               0               +AL  178
                  202-        +AL  178ENDREC                                                          +AL  179
                  203-        DTI*    ALGDB           68              0.999999905E01  0.499999970E-01 +AL  180
                  204-        *AL  1800               0               0               0               +AL  181
                  205-        +AL  181ENDREC                                                          +AL  182
                  206-        DTI     ALGDB   69      0       0       0       0       0       0       +AL  183
                  207-        +AL  1830       0       0       0       0       0       0       0       +AL  184
                  208-        +AL  1840       0       0       0       0       0       0       0       +AL  185
                  209-        +AL  1850       0       ENDREC                                          +AL  186
                  210-        DTI     ALGDB   70      0       0       0       0       0       0       +AL  187
                  211-        +AL  1870       0       0       0       0       0       0       0       +AL  188
                  212-        +AL  1880       0       0       0       0       0       0       0       +AL  189
                  213-        +AL  1890       0       ENDREC                                          +AL  190
                  214-        DTI*    ALGDB           71              0.249999940E00  0.249999940E00  +AL  191
                  215-        *AL  1910               0               0               0               +AL  192
                  216-        +AL  192ENDREC                                                          +AL  193
                  217-        DTI*    ALGDB           72              0.499999940E00  0.499999940E00  +AL  194
                  218-        *AL  1940               0               0               0               +AL  195
                  219-        +AL  195ENDREC                                                          +AL  196
                  220-        DTI*    ALGDB           73              0.749999940E00  0.749999940E00  +AL  197
                  221-        *AL  1970               0               0               0               +AL  198
                  222-        +AL  198ENDREC                                                          +AL  199
                  223-        DTI*    ALGDB           74              0.999999940E00  0.999999940E00  +AL  200
                  224-        *AL  2000               0               0               0               +AL  201
                  225-        +AL  201ENDREC                                                          +AL  202
                  226-        DTI*    ALGDB           75              0               0               +AL  203
                  227-        *AL  2030.499999940E00  0               0               0               +AL  204
                  228-        +AL  2040       0       0       0       0       0       0       0       +AL  205
                  229-        +AL  2050       0       0       0       0       0       0       0       +AL  206
                  230-        +AL  2060       0       ENDREC                                          +AL  207
                  231-        DTI     ALGDB   76      AERODYNAMIC ANALYSIS OF NASA LEWIS BLADE        +AL  208
                  232-        +AL  208                        ENDREC                                  +AL  209
                  233-        DTI     ALGDB   77      0       0       0       0       0       0       +AL  210
                  234-        +AL  2100       0       0       0       0       0       0       0       +AL  211
                  235-        +AL  2110       0       0       0       0       0       0       0       +AL  212
1 STATIC AEROTHERMOELASTIC ANALYSIS OF A ROTOR BLADE                    / 95 X86_64 Windows_NT NASTRAN     / DEC 27, 16 / PAGE    11
      NASTRAN TEST PROBLEM NO. T16-01-1A                                                                                            

                                                                                                                                    

                                                  S O R T E D   B U L K    D A T A    E C H O                                       
                     CARD                                                                                                           
                     COUNT        ---1--- +++2+++ ---3--- +++4+++ ---5--- +++6+++ ---7--- +++8+++ ---9--- +++10+++                  
                  236-        +AL  2120       0       ENDREC                                          +AL  213
                  237-        DTI     ALGDB   78      7       4       0       40      0       0       +AL  214
                  238-        +AL  2140       1       1       0       0       0       0       0       +AL  215
                  239-        +AL  2150       3       0       0       3       5       1       0       +AL  216
                  240-        +AL  2160       0       ENDREC                                          +AL  217
                  241-        DTI     ALGDB   79      3       4       5       0       0       0       +AL  218
                  242-        +AL  2180       0       0       0       0       0       0       0       +AL  219
                  243-        +AL  2190       0       0       0       0       0       0       0       +AL  220
                  244-        +AL  2200       0       ENDREC                                          +AL  221
                  245-        DTI*    ALGDB           80              0               0               +AL  222
                  246-        *AL  2220               0.999999931E-03 0               0               +AL  223
                  247-        +AL  2230       0       0       0       0       0       0       0       +AL  224
                  248-        +AL  2240       0       0       0       0       0       0       0       +AL  225
                  249-        +AL  2250       0       ENDREC                                          +AL  226
                  250-        DTI*    ALGDB           81              0.999999940E00  0.999999940E00  +AL  227
                  251-        *AL  2270.399999905E01  0               0.699999988E00  0.799999905E01  +AL  228
                  252-        +AL  228ENDREC                                                          +AL  229
                  253-        DTI     ALGDB   82      0       0       0       0       0       0       +AL  230
                  254-        +AL  2300       0       0       0       0       0       0       0       +AL  231
                  255-        +AL  2310       0       0       0       0       0       0       0       +AL  232
                  256-        +AL  2320       0       ENDREC                                          +AL  233
                  257-        DTI*    ALGDB           83              0.731459961E02  0.999999940E00  +AL  234
                  258-        *AL  2340               0               0               0               +AL  235
                  259-        +AL  235ENDREC                                                          +AL  236
                  260-        DTI     ALGDB   84      2       0       0       0       0       0       +AL  237
                  261-        +AL  2370       0       0       0       0       0       0       0       +AL  238
                  262-        +AL  2380       0       0       0       0       0       0       0       +AL  239
                  263-        +AL  2390       0       ENDREC                                          +AL  240
                  264-        DTI*    ALGDB           85              -0.399999905E01 0.324999905E01  +AL  241
                  265-        *AL  2410               0               0               0               +AL  242
                  266-        +AL  242ENDREC                                                          +AL  243
                  267-        DTI*    ALGDB           86              -0.399999905E01 0.100400000E02  +AL  244
                  268-        *AL  2440               0               0               0               +AL  245
                  269-        +AL  245ENDREC                                                          +AL  246
                  270-        DTI     ALGDB   87      2       0       0       0       0       0       +AL  247
                  271-        +AL  2470       0       0       0       0       0       0       0       +AL  248
                  272-        +AL  2480       0       0       0       0       0       0       0       +AL  249
                  273-        +AL  2490       0       ENDREC                                          +AL  250
                  274-        DTI*    ALGDB           88              -0.199999905E01 0.359999943E01  +AL  251
                  275-        *AL  2510               0               0               0               +AL  252
                  276-        +AL  252ENDREC                                                          +AL  253
                  277-        DTI*    ALGDB           89              -0.199999905E01 0.100400000E02  +AL  254
                  278-        *AL  2540               0               0               0               +AL  255
                  279-        +AL  255ENDREC                                                          +AL  256
                  280-        DTI     ALGDB   90      4       ENDREC                                  +AL  257
                  281-        DTI*    ALGDB           91              -0.898070633E00 0.378958511E01  +AL  258
                  282-        *AL  258ENDREC                                                          +AL  259
1 STATIC AEROTHERMOELASTIC ANALYSIS OF A ROTOR BLADE                    / 95 X86_64 Windows_NT NASTRAN     / DEC 27, 16 / PAGE    12
      NASTRAN TEST PROBLEM NO. T16-01-1A                                                                                            

                                                                                                                                    

                                                  S O R T E D   B U L K    D A T A    E C H O                                       
                     CARD                                                                                                           
                     COUNT        ---1--- +++2+++ ---3--- +++4+++ ---5--- +++6+++ ---7--- +++8+++ ---9--- +++10+++                  
                  283-        DTI*    ALGDB           92              -0.765281737E00 0.547675800E01  +AL  260
                  284-        *AL  260ENDREC                                                          +AL  261
                  285-        DTI*    ALGDB           93              -0.638598502E00 0.736359024E01  +AL  262
                  286-        *AL  262ENDREC                                                          +AL  263
                  287-        DTI*    ALGDB           94              -0.405804217E00 0.995540905E01  +AL  264
                  288-        *AL  264ENDREC                                                          +AL  265
                  289-        DTI     ALGDB   95      4       ENDREC                                  +AL  266
                  290-        DTI*    ALGDB           96              -0.707454019E-040.399898529E01  +AL  267
                  291-        *AL  267ENDREC                                                          +AL  268
                  292-        DTI*    ALGDB           97              -0.459544128E-030.549857426E01  +AL  269
                  293-        *AL  269ENDREC                                                          +AL  270
                  294-        DTI*    ALGDB           98              -0.911400467E-020.739762974E01  +AL  271
                  295-        *AL  271ENDREC                                                          +AL  272
                  296-        DTI*    ALGDB           99              -0.106336363E-010.999707603E01  +AL  273
                  297-        *AL  273ENDREC                                                          +AL  274
                  298-        DTI     ALGDB   100     4       ENDREC                                  +AL  275
                  299-        DTI*    ALGDB           101             0.897929192E00  0.419198513E01  +AL  276
                  300-        *AL  276ENDREC                                                          +AL  277
                  301-        DTI*    ALGDB           102             0.779861093E00  0.549377537E01  +AL  278
                  302-        *AL  278ENDREC                                                          +AL  279
                  303-        DTI*    ALGDB           103             0.623993874E00  0.736712265E01  +AL  280
                  304-        *AL  280ENDREC                                                          +AL  281
                  305-        DTI*    ALGDB           104             0.413974285E00  0.996370506E01  +AL  282
                  306-        *AL  282ENDREC                                                          +AL  283
                  307-        DTI     ALGDB   105     2       0       0       0       0       0       +AL  284
                  308-        +AL  2840       0       0       0       0       0       0       0       +AL  285
                  309-        +AL  2850       0       0       0       0       0       0       0       +AL  286
                  310-        +AL  2860       0       ENDREC                                          +AL  287
                  311-        DTI*    ALGDB           106             0.199999905E01  0.439999962E01  +AL  288
                  312-        *AL  2880               0               0               0               +AL  289
                  313-        +AL  289ENDREC                                                          +AL  290
                  314-        DTI*    ALGDB           107             0.199999905E01  0.100400000E02  +AL  291
                  315-        *AL  2910               0               0               0               +AL  292
                  316-        +AL  292ENDREC                                                          +AL  293
                  317-        DTI     ALGDB   108     2       0       0       0       0       0       +AL  294
                  318-        +AL  2940       0       0       0       0       0       0       0       +AL  295
                  319-        +AL  2950       0       0       0       0       0       0       0       +AL  296
                  320-        +AL  2960       0       ENDREC                                          +AL  297
                  321-        DTI*    ALGDB           109             0.399999905E01  0.474999905E01  +AL  298
                  322-        *AL  2980               0               0               0               +AL  299
                  323-        +AL  299ENDREC                                                          +AL  300
                  324-        DTI*    ALGDB           110             0.399999905E01  0.100400000E02  +AL  301
                  325-        *AL  3010               0               0               0               +AL  302
                  326-        +AL  302ENDREC                                                          +AL  303
                  327-        DTI     ALGDB   111     1       0       0       0       0       0       +AL  304
                  328-        +AL  3040       0       0       0       0       0       0       0       +AL  305
                  329-        +AL  3050       0       0       0       0       0       0       0       +AL  306
1 STATIC AEROTHERMOELASTIC ANALYSIS OF A ROTOR BLADE                    / 95 X86_64 Windows_NT NASTRAN     / DEC 27, 16 / PAGE    13
      NASTRAN TEST PROBLEM NO. T16-01-1A                                                                                            

                                                                                                                                    

                                                  S O R T E D   B U L K    D A T A    E C H O                                       
                     CARD                                                                                                           
                     COUNT        ---1--- +++2+++ ---3--- +++4+++ ---5--- +++6+++ ---7--- +++8+++ ---9--- +++10+++                  
                  330-        +AL  3060       0       ENDREC                                          +AL  307
                  331-        DTI*    ALGDB           112             0.324999905E01  0.146999998E02  +AL  308
                  332-        *AL  3080.518699951E03  0               0               0               +AL  309
                  333-        +AL  309ENDREC                                                          +AL  310
                  334-        DTI     ALGDB   113     0       0       0       0       0       0       +AL  311
                  335-        +AL  3110       0       0       0       0       0       0       0       +AL  312
                  336-        +AL  3120       0       0       0       0       0       0       0       +AL  313
                  337-        +AL  3130       0       ENDREC                                          +AL  314
                  338-        DTI*    ALGDB           114             0.399999905E01  0               +AL  315
                  339-        *AL  3150               0               0               0               +AL  316
                  340-        +AL  316ENDREC                                                          +AL  317
                  341-        DTI*    ALGDB           115             0.999999905E01  0.999999940E00  +AL  318
                  342-        *AL  3180               0               0               0               +AL  319
                  343-        +AL  319ENDREC                                                          +AL  320
                  344-        DTI     ALGDB   116     0       0       0       0       0       0       +AL  321
                  345-        +AL  3210       0       0       0       0       0       0       0       +AL  322
                  346-        +AL  3220       0       0       0       0       0       0       0       +AL  323
                  347-        +AL  3230       0       ENDREC                                          +AL  324
                  348-        DTI     ALGDB   117     0       0       0       0       0       0       +AL  325
                  349-        +AL  3250       0       0       0       0       0       0       0       +AL  326
                  350-        +AL  3260       0       0       0       0       0       0       0       +AL  327
                  351-        +AL  3270       0       ENDREC                                          +AL  328
                  352-        DTI     ALGDB   118     0       0       0       0       0       0       +AL  329
                  353-        +AL  3290       0       0       0       0       0       0       0       +AL  330
                  354-        +AL  3300       0       0       0       0       0       0       0       +AL  331
                  355-        +AL  3310       0       ENDREC                                          +AL  332
                  356-        DTI     ALGDB   119     0       0       0       0       0       0       +AL  333
                  357-        +AL  3330       0       0       0       0       0       0       0       +AL  334
                  358-        +AL  3340       0       0       0       0       0       0       0       +AL  335
                  359-        +AL  3350       0       ENDREC                                          +AL  336
                  360-        DTI     ALGDB   120     0       0       0       0       0       0       +AL  337
                  361-        +AL  3370       0       0       0       0       0       0       0       +AL  338
                  362-        +AL  3380       0       0       0       0       0       0       0       +AL  339
                  363-        +AL  3390       0       ENDREC                                          +AL  340
                  364-        DTI     ALGDB   121     0       0       0       0       0       0       +AL  341
                  365-        +AL  3410       0       0       0       0       0       0       0       +AL  342
                  366-        +AL  3420       0       0       0       0       0       0       0       +AL  343
                  367-        +AL  3430       0       ENDREC                                          +AL  344
                  368-        DTI     ALGDB   122     0       0       0       0       0       0       +AL  345
                  369-        +AL  3450       0       0       0       0       0       0       0       +AL  346
                  370-        +AL  3460       0       0       0       0       0       0       0       +AL  347
                  371-        +AL  3470       0       ENDREC                                          +AL  348
                  372-        DTI     ALGDB   123     0       0       0       0       0       0       +AL  349
                  373-        +AL  3490       0       0       0       0       0       0       0       +AL  350
                  374-        +AL  3500       0       0       0       0       0       0       0       +AL  351
                  375-        +AL  3510       0       ENDREC                                          +AL  352
                  376-        DTI     ALGDB   124     0       0       0       0       0       0       +AL  353
1 STATIC AEROTHERMOELASTIC ANALYSIS OF A ROTOR BLADE                    / 95 X86_64 Windows_NT NASTRAN     / DEC 27, 16 / PAGE    14
      NASTRAN TEST PROBLEM NO. T16-01-1A                                                                                            

                                                                                                                                    

                                                  S O R T E D   B U L K    D A T A    E C H O                                       
                     CARD                                                                                                           
                     COUNT        ---1--- +++2+++ ---3--- +++4+++ ---5--- +++6+++ ---7--- +++8+++ ---9--- +++10+++                  
                  377-        +AL  3530       0       0       0       0       0       0       0       +AL  354
                  378-        +AL  3540       0       0       0       0       0       0       0       +AL  355
                  379-        +AL  3550       0       ENDREC                                          +AL  356
                  380-        DTI     ALGDB   125     6       0       0       0       0       0       +AL  357
                  381-        +AL  3570       0       0       0       0       0       0       0       +AL  358
                  382-        +AL  3580       0       0       0       0       0       0       0       +AL  359
                  383-        +AL  3590       0       ENDREC                                          +AL  360
                  384-        DTI*    ALGDB           126             0               0.599999726E-02 +AL  361
                  385-        *AL  3610.599999726E-02 0.599999726E-02 0               0               +AL  362
                  386-        +AL  3620       0       0       0       0       0       0       0       +AL  363
                  387-        +AL  3630       0       0       0       0       0       0       0       +AL  364
                  388-        +AL  3640       0       ENDREC                                          +AL  365
                  389-        DTI*    ALGDB           127             0.199999988E00  0.699999928E-02 +AL  366
                  390-        *AL  3660.699999928E-02 0.699999928E-02 0               0               +AL  367
                  391-        +AL  367ENDREC                                                          +AL  368
                  392-        DTI*    ALGDB           128             0.399999976E00  0.139999986E-01 +AL  369
                  393-        *AL  3690.139999986E-01 0.139999986E-01 0               0               +AL  370
                  394-        +AL  370ENDREC                                                          +AL  371
                  395-        DTI*    ALGDB           129             0.599999964E00  0.299999975E-01 +AL  372
                  396-        *AL  3720.309999995E-01 0.309999995E-01 0               0               +AL  373
                  397-        +AL  373ENDREC                                                          +AL  374
                  398-        DTI*    ALGDB           130             0.799999952E00  0.599999987E-01 +AL  375
                  399-        *AL  3750.599999987E-01 0.599999987E-01 0               0               +AL  376
                  400-        +AL  376ENDREC                                                          +AL  377
                  401-        DTI*    ALGDB           131             0.999999940E00  0.124999940E00  +AL  378
                  402-        *AL  3780.124999940E00  0.124999940E00  0               0               +AL  379
                  403-        +AL  379ENDREC                                                          +AL  380
                  404-        DTI     ALGDB   132     2       1       0       0       0       0       +AL  381
                  405-        +AL  3810       0       0       0       0       0       0       0       +AL  382
                  406-        +AL  3820       0       0       0       0       0       0       0       +AL  383
                  407-        +AL  3830       0       ENDREC                                          +AL  384
                  408-        DTI     ALGDB   133     0       0       0       0       0       0       +AL  385
                  409-        +AL  3850       0       0       0       0       0       0       0       +AL  386
                  410-        +AL  3860       0       0       0       0       0       0       0       +AL  387
                  411-        +AL  3870       0       ENDREC                                          +AL  388
                  412-        DTI     ALGDB   134     0       0       0       0       0       0       +AL  389
                  413-        +AL  3890       0       0       0       0       0       0       0       +AL  390
                  414-        +AL  3900       0       0       0       0       0       0       0       +AL  391
                  415-        +AL  3910       0       ENDREC                                          +AL  392
                  416-        DTI*    ALGDB           135             0.999999940E00  0               +AL  393
                  417-        *AL  3930               0               0               0               +AL  394
                  418-        +AL  394ENDREC                                                          +AL  395
                  419-        GRID    1               -0.8981 -0.2755 3.7796                                  
                  420-        GRID    2               -0.0001 0.0540  3.9986                                  
                  421-        GRID    3               0.8979  -0.2464 4.1847                                  
                  422-        GRID    4               -0.7653 -0.4830 5.4554                                  
                  423-        GRID    5               -0.0005 0.0209  5.4985                                  
1 STATIC AEROTHERMOELASTIC ANALYSIS OF A ROTOR BLADE                    / 95 X86_64 Windows_NT NASTRAN     / DEC 27, 16 / PAGE    15
      NASTRAN TEST PROBLEM NO. T16-01-1A                                                                                            

                                                                                                                                    

                                                  S O R T E D   B U L K    D A T A    E C H O                                       
                     CARD                                                                                                           
                     COUNT        ---1--- +++2+++ ---3--- +++4+++ ---5--- +++6+++ ---7--- +++8+++ ---9--- +++10+++                  
                  424-        GRID    6               0.7799  0.2307  5.4889                                  
                  425-        GRID    7               -0.6386 -0.7217 7.3281                                  
                  426-        GRID    8               -0.0091 0.0155  7.3976                                  
                  427-        GRID    9               0.6240  0.6123  7.3416                                  
                  428-        GRID    10              -0.4058 -1.1351 9.8905                                  
                  429-        GRID    11              -0.0106 -0.0236 9.9970                                  
                  430-        GRID    12              0.4140  0.8134  9.9304                                  
                  431-        GRID    101     1       2.375   4.186   -0.987  1                               
                  432-        GRID    103     1       2.375   4.186   0.987   1                               
                  433-        GRID    104     1       2.375   0.0     0.987   1                               
                  434-        GRID    105     1       2.375   -4.186  0.987   1                               
                  435-        GRID    107     1       2.375   -4.186  -0.987  1                               
                  436-        GRID    108     1       2.375   0.0     -0.987  1                               
                  437-        GRID    113     1       3.982   4.186   -0.987  1                               
                  438-        GRID    115     1       4.539   4.186   0.987   1                               
                  439-        GRID    116     1       4.539   0.0     0.987                                   
                  440-        GRID    117     1       4.539   -4.186  0.987   1                               
                  441-        GRID    119     1       3.982   -4.186  -0.987  1                               
                  442-        GRID    120     1       3.982   0.0     -0.987                                  
                  443-        GRID    121     1       0.905   4.186   -0.987  1                               
                  444-        GRID    123     1       0.905   4.186   0.987   1                               
                  445-        GRID    124     1       0.905   0.0     0.987   1                               
                  446-        GRID    125     1       0.905   -4.186  0.987   1                               
                  447-        GRID    127     1       0.905   -4.186  -0.987  1                               
                  448-        GRID    128     1       0.905   0.0     -0.987  1                               
                  449-        MAT1    1       31.0E6          0.3     7.300E-4                                
                  450-        MPC     600     1       1       1.0     2       1       -1.0                    
                  451-        MPC     600     1       2       1.0     2       2       -1.0                    
                  452-        MPC     600     1       3       1.0     2       3       -1.0                    
                  453-        MPC     600     1       4       1.0     2       4       -1.0                    
                  454-        MPC     600     1       5       1.0     2       5       -1.0                    
                  455-        MPC     600     1       6       1.0     2       6       -1.0                    
                  456-        MPC     600     3       1       1.0     2       1       -1.0                    
                  457-        MPC     600     3       2       1.0     2       2       -1.0                    
                  458-        MPC     600     3       3       1.0     2       3       -1.0                    
                  459-        MPC     600     3       4       1.0     2       4       -1.0                    
                  460-        MPC     600     3       5       1.0     2       5       -1.0                    
                  461-        MPC     600     3       6       1.0     2       6       -1.0                    
                  462-        MPC     600     101     1       1.0     107     1       -1.0                    
                  463-        MPC     600     101     2       1.0     107     2       -1.0                    
                  464-        MPC     600     101     3       1.0     107     3       -1.0                    
                  465-        MPC     600     103     2       1.0     105     2       -1.0                    
                  466-        MPC     600     103     3       1.0     105     3       -1.0                    
                  467-        MPC     600     103     1       1.0     105     1       -1.0                    
                  468-        MPC     600     113     1       1.0     119     1       -1.0                    
                  469-        MPC     600     113     2       1.0     119     2       -1.0                    
                  470-        MPC     600     113     3       1.0     119     3       -1.0                    
1 STATIC AEROTHERMOELASTIC ANALYSIS OF A ROTOR BLADE                    / 95 X86_64 Windows_NT NASTRAN     / DEC 27, 16 / PAGE    16
      NASTRAN TEST PROBLEM NO. T16-01-1A                                                                                            

                                                                                                                                    

                                                  S O R T E D   B U L K    D A T A    E C H O                                       
                     CARD                                                                                                           
                     COUNT        ---1--- +++2+++ ---3--- +++4+++ ---5--- +++6+++ ---7--- +++8+++ ---9--- +++10+++                  
                  471-        MPC     600     115     1       1.0     117     1       -1.0                    
                  472-        MPC     600     115     2       1.0     117     2       -1.0                    
                  473-        MPC     600     115     3       1.0     117     3       -1.0                    
                  474-        MPC     600     116     1       1.0     2       1       -1.0                    
                  475-        MPC     600     116     2       1.0     2       2       -1.0                    
                  476-        MPC     600     116     3       1.0     2       3       -1.0                    
                  477-        MPC     600     120     3       1.0     2       3       -1.0                    
                  478-        MPC     600     120     1       1.0     2       1       -1.0                    
                  479-        MPC     600     120     2       1.0     2       2       -1.0                    
                  480-        MPC     600     121     1       1.0     127     1       -1.0                    
                  481-        MPC     600     123     1       1.0     125     1       -1.0                    
                  482-        PARAM   APRESS  1                                                               
                  483-        PARAM   ATEMP   1                                                               
                  484-        PARAM   FXCOOR  1.0                                                             
                  485-        PARAM   FYCOOR  1.0                                                             
                  486-        PARAM   FZCOOR  1.0                                                             
                  487-        PARAM   IPRTCF  1                                                               
                  488-        PARAM   IPRTCI  1                                                               
                  489-        PARAM   IPRTCL  0                                                               
                  490-        PARAM   KTOUT   -1                                                              
                  491-        PARAM   PGEOM   1                                                               
                  492-        PARAM   SIGN    +1.0                                                            
                  493-        PARAM   STREAML 2                                                               
                  494-        PARAM   ZORIGN  0.0                                                             
                  495-        PTRIA2  2000    1       0.1040  0.                                              
                  496-        PTRIA2  2005    1       0.1040  0.                                              
                  497-        PTRIA2  2010    1       0.0707  0.                                              
                  498-        PTRIA2  2015    1       0.0707  0.                                              
                  499-        PTRIA2  2020    1       0.0422  0.                                              
                  500-        PTRIA2  2025    1       0.0422  0.                                              
                  501-        RFORCE  1       0       0       267.367 1.0     0.0     0.0                     
                  502-        SPC1    500     23      121     123     124     125     127     128             
                  503-        SPC1    500     45      7       10      12                                      
                  504-        SPC1    500     456     101     103     104     105     107     108             
                  505-        SPC1    500     456     113     115     116     117     119     120             
                  506-        SPC1    500     456     121     123     124     125     127     128             
                  507-        STREAML11       1       THRU    3                                               
                  508-        STREAML12       4       THRU    6                                               
                  509-        STREAML13       7       THRU    9                                               
                  510-        STREAML14       10      THRU    12                                              
                              ENDDATA
1 STATIC AEROTHERMOELASTIC ANALYSIS OF A ROTOR BLADE                    / 95 X86_64 Windows_NT NASTRAN     / DEC 27, 16 / PAGE    17
      NASTRAN TEST PROBLEM NO. T16-01-1A                                                                                            
0                                                                                                                                   
0         COSMIC / NASTRAN DMAP COMPILER - SOURCE LISTING                                                                           
                                                                                                                                    
                                                                                                                                    
0  OPTIONS IN EFFECT GO      ERR=2   LIST    NODECK  NOREF   NOOSCAR 
   -----------------


       1  BEGIN    DISP 16 STATIC AEROTHERMOELASTIC DESIGN/ANALYSIS - APR. 1995 $ 

       2  PRECHK   ALL $                                                          

       3  PARAM    //*MPY*/CARDNO/0/0 $                                           

       4  GP1      GEOM1,GEOM2,/GPL,EQEXIN,GPDT,CSTM,BGPDT,SIL/S,N,LUSET/S,N,     
                   NOGPDT/MINUS1=-1 $                                             

       5  ANISOP   GEOM1,EPT,BGPDT,EQEXIN,MPT/MPTA/S,N,ISOP $                     

       6  EQUIV    MPTA,MPT/ISOP $                                                

       7  COND     ERROR3,NOGPDT $                                                

       8  PLTTRAN  BGPDT,SIL/BGPDP,SIP/LUSET/S,N,LUSEP $                          

       9  GP2      GEOM2,EQEXIN/ECT $                                             

      10  PARAML   PCDB//*PRES*////JUMPPLOT $                                     

      11  PARAMR   //*COMPLEX*//V,Y,SIGN/0.0/CSIGN $                              

      12  PURGE    PLTSETX,PLTPAR,GPSETS,ELSETS/JUMPPLOT $                        

      13  COND     P1,JUMPPLOT $                                                  

      14  PLTSET   PCDB,EQEXIN,ECT,EPT/PLTSETX,PLTPAR,GPSETS,ELSETS/S,N,NSIL/S,N, 
                   JUMPPLOT $                                                     

      15  PRTMSG   PLTSETX// $                                                    

      16  PARAM    //*MPY*/PLTFLG/1/1 $                                           

      17  PARAM    //*MPY*/PFILE/0/0 $                                            

      18  COND     P1,JUMPPLOT $                                                  

      19  PLOT     PLTPAR,GPSETS,ELSETS,CASECC,BGPDT,EQEXIN,SIL,,,,,,/PLOTX1/     
                   NSIL/LUSET/S,N,JUMPPLOT/S,N,PLTFLG/S,N,PFILE $                 

      20  PRTMSG   PLOTX1// $                                                     
1 STATIC AEROTHERMOELASTIC ANALYSIS OF A ROTOR BLADE                    / 95 X86_64 Windows_NT NASTRAN     / DEC 27, 16 / PAGE    18
      NASTRAN TEST PROBLEM NO. T16-01-1A                                                                                            

                                                                                                                                    

          COSMIC / NASTRAN DMAP COMPILER - SOURCE LISTING                                                                           
                                                                                                                                    
                                                                                                                                    

      21  LABEL    P1 $                                                           

      22  GP3      GEOM3,EQEXIN,GEOM2/SLT,GPTT/S,N,NOGRAV $                       

      23  PARAM    //*AND*/NOMGG/NOGRAV/V,Y,GRDPNT=-1 $                           

      24  TA1      ECT,EPT,BGPDT,SIL,GPTT,CSTM,MPT,EQEXIN/EST,GEI,GPECT,,,MPTX,   
                   PCOMPS,EPTX/LUSET/S,N,NOSIMP/1/S,N,NOGENL/S,N,GENEL/S,N,COMPS $

      25  EQUIV    MPTX,MPT/COMPS/EPTX,EPT/COMPS $                                

      26  COND     ERROR1,NOSIMP $                                                

      27  PARAM    //*ADD*/NOKGGX/1/0 $                                           

      28  EMG      EST,CSTM,MPT,DIT,GEOM2,/KELM,KDICT,MELM,MDICT,,,/S,N,NOKGGX/   
                   S,N,NOMGG////C,Y,COUPMASS/C,Y,CPBAR/C,Y,CPROD/C,Y,             
                   CPQUAD1/C,Y,CPQUAD2/C,Y,CPTRIA1/C,Y,CPTRIA2/C,Y,CPTUBE/C,Y,    
                   CPQDPLT/C,Y,CPTRPLT/C,Y,CPTRBSC/                               
                   C,Y,VOLUME/C,Y,SURFACE $                                       

      29  COND     JMPKGG,NOKGGX $                                                

      30  EMA      GPECT,KDICT,KELM/KGGX $                                        

[...]
        115           201    HEXA1         -2.824764E+03  -1.641934E+04   1.888186E+03  -0.0           -0.0           -0.0          
        115                  *TOTALS*      -9.274794E+02  -1.641934E+04   1.888186E+03   0.0            0.0            0.0          


0       116                  APP-LOAD       0.0            0.0            2.448729E+03   0.0            0.0            0.0          
        116           201    HEXA1         -3.412236E+03  -1.419661E+04  -1.684708E+03  -0.0           -0.0           -0.0          
        116           202    HEXA1          4.837923E+02   1.860887E+04  -6.144818E+03  -0.0           -0.0           -0.0          
        116                  *TOTALS*      -2.928444E+03   4.412261E+03  -5.380797E+03   0.0            0.0            0.0          
1 STATIC AEROTHERMOELASTIC ANALYSIS OF A ROTOR BLADE                    / 95 X86_64 Windows_NT NASTRAN     / DEC 27, 16 / PAGE    57
      NASTRAN TEST PROBLEM NO. T16-01-1A                                                                                            
0     NONLINEAR SOLUTION OF ROTOR BLADE                                                                      SUBCASE 2              
 
                                          G R I D   P O I N T   F O R C E   B A L A N C E
 
   POINT-ID    ELEMENT-ID     SOURCE             T1             T2             T3             R1             R2             R3


0       117                  APP-LOAD       5.514448E+02   0.0            0.0            0.0            0.0            0.0          
        117           202    HEXA1          3.760289E+02   1.641932E+04  -1.888185E+03  -0.0           -0.0           -0.0          
        117                  *TOTALS*       9.274736E+02   1.641932E+04  -1.888185E+03   0.0            0.0            0.0          


0       119                  APP-LOAD       1.599306E+03   0.0            0.0            0.0            0.0            0.0          
        119           202    HEXA1          3.254815E+02   1.433346E+04  -2.019418E+03  -0.0           -0.0           -0.0          
        119                  *TOTALS*       1.924787E+03   1.433346E+04  -2.019418E+03   0.0            0.0            0.0          


0       120                  APP-LOAD       0.0            0.0            1.914474E+03   0.0            0.0            0.0          
        120           201    HEXA1         -4.177295E+02  -1.683789E+04  -2.730279E+03  -0.0           -0.0           -0.0          
        120           202    HEXA1          3.384534E+03   1.247736E+04  -3.673083E+03  -0.0           -0.0           -0.0          
        120                  *TOTALS*       2.966804E+03  -4.360530E+03  -4.488888E+03   0.0            0.0            0.0          


0       121                  APP-LOAD       1.228344E+02   0.0            0.0            0.0            0.0            0.0          
        121                  F-OF-SPC       0.0            3.451873E+04  -4.134268E+03   0.0            0.0            0.0          
        121           203    HEXA1         -5.553751E+03  -3.451873E+04   4.134268E+03  -0.0           -0.0           -0.0          
        121                  *TOTALS*      -5.430917E+03   0.0            0.0            0.0            0.0            0.0          


0       123                  APP-LOAD       1.489151E+01   0.0            0.0            0.0            0.0            0.0          
        123                  F-OF-SPC       0.0            3.069117E+04   4.855215E+02   0.0            0.0            0.0          
        123           203    HEXA1         -3.564659E+03  -3.069117E+04  -4.855215E+02  -0.0           -0.0           -0.0          
        123                  *TOTALS*      -3.549768E+03   1.953125E-03   0.0            0.0            0.0            0.0          


0       124                  F-OF-SPC       0.0           -4.287852E+03   4.672181E+03   0.0            0.0            0.0          
        124                  APP-LOAD       1.377259E+02   0.0            0.0            0.0            0.0            0.0          
        124           203    HEXA1          3.508424E+03   3.494582E+04  -4.187527E+03  -0.0           -0.0           -0.0          
        124           204    HEXA1         -3.646136E+03  -3.065797E+04  -4.846544E+02  -0.0           -0.0           -0.0          
        124                  *TOTALS*       1.367188E-02  -1.953125E-03  -1.220703E-04   0.0            0.0            0.0          


0       125                  APP-LOAD       1.228344E+02   0.0            0.0            0.0            0.0            0.0          
        125                  F-OF-SPC       0.0           -3.494844E+04   4.170538E+03   0.0            0.0            0.0          
        125           204    HEXA1          3.426924E+03   3.494844E+04  -4.170538E+03  -0.0           -0.0           -0.0          
        125                  *TOTALS*       3.549759E+03   0.0            0.0            0.0            0.0            0.0          


0       127                  APP-LOAD       1.489151E+01   0.0            0.0            0.0            0.0            0.0          
        127                  F-OF-SPC       0.0           -3.181861E+04  -5.212381E+02   0.0            0.0            0.0          
        127           204    HEXA1          5.416015E+03   3.181861E+04   5.212381E+02  -0.0           -0.0           -0.0          
        127                  *TOTALS*       5.430907E+03   0.0            0.0            0.0            0.0            0.0          
1 STATIC AEROTHERMOELASTIC ANALYSIS OF A ROTOR BLADE                    / 95 X86_64 Windows_NT NASTRAN     / DEC 27, 16 / PAGE    58
      NASTRAN TEST PROBLEM NO. T16-01-1A                                                                                            
0     NONLINEAR SOLUTION OF ROTOR BLADE                                                                      SUBCASE 2              
 
                                          G R I D   P O I N T   F O R C E   B A L A N C E
 
   POINT-ID    ELEMENT-ID     SOURCE             T1             T2             T3             R1             R2             R3


0       128                  F-OF-SPC       0.0            2.901672E+03  -4.634374E+03   0.0            0.0            0.0          
        128                  APP-LOAD       1.377259E+02   0.0            0.0            0.0            0.0            0.0          
        128           203    HEXA1          5.330375E+03   3.177433E+04   5.202963E+02  -0.0           -0.0           -0.0          
        128           204    HEXA1         -5.468095E+03  -3.467600E+04   4.114077E+03  -0.0           -0.0           -0.0          
        128                  *TOTALS*       5.859375E-03   3.906250E-03   0.0            0.0            0.0            0.0          
1 STATIC AEROTHERMOELASTIC ANALYSIS OF A ROTOR BLADE                    / 95 X86_64 Windows_NT NASTRAN     / DEC 27, 16 / PAGE    59
      NASTRAN TEST PROBLEM NO. T16-01-1A                                                                                            
0                                                                                                                                   
                                                  MESSAGES FROM THE PLOT MODULE                                                   





 P L O T T E R    D A T A                                                                                                           
                                                                                                                                    
          THE FOLLOWING PLOTS ARE FOR A NASTPLT   DRUM    PLOTTER WITH    TYPING CAPABILITY                                         
                                                                                                                                    
          AN END-OF-FILE MARK FOLLOWS THE LAST PLOT                                                                                 
                                                                                                                                    
          THE FIRST COMMAND FOR EACH PLOT CONTAINS THE PLOT NUMBER                                                                  
                                                                                                                                    
          CSCALE =  1.00                                                                                                            
                                                                                                                                    
          PAPER SIZE = 10.0 X 10.0,  PAPER TYPE = VELLUM                                                                            
                                                                                                                                    
          PEN 1 - SIZE 1, BLACK                                                                                                     
                                                                                                                                    
          PEN 2 - SIZE 1, BLACK                                                                                                     
                                                                                                                                    
          PEN 3 - SIZE 1, BLACK                                                                                                     
                                                                                                                                    
          PEN 4 - SIZE 1, BLACK                                                                                                     
                                                                                                                                    
          PEN 5 - SIZE 1, BLACK                                                                                                     
                                                                                                                                    
          PEN 6 - SIZE 1, BLACK                                                                                                     
                                                                                                                                    
          PEN 7 - SIZE 1, BLACK                                                                                                     
                                                                                                                                    
          PEN 8 - SIZE 1, BLACK                                                                                                     
                                                                                                                                    
                                                                                                                                    




 E N G I N E E R I N G    D A T A                                                                                                   
                                                                                                                                    
          ORTHOGRAPHIC PROJECTION                                                                                                   
          ROTATIONS (DEGREES) - GAMMA =  34.27, BETA =  23.17, ALPHA =   0.00,  AXES = +X,+Y,+Z, SYMMETRIC                          
          SCALE (OBJECT-TO-PLOT SIZE) = 7.864423E-01                                                                                
                                                                                                                                    
          ORIGIN       1   -   X0 = -4.301828E+00, Y0 = -0.612309E+00     (INCHES)                                                  
          ORIGIN       2   -   X0 =  2.823151E-02, Y0 = -0.474000E+01     (INCHES)                                                  
          ORIGIN       3   -   X0 = -4.180000E+00, Y0 = -0.509836E+01     (INCHES)                                                  
          ORIGIN       4   -   X0 = -4.282722E+00, Y0 = -0.932401E+00     (INCHES)                                                  




                                                  PLOT MODULE MESSAGES CONTINUE                                                     
                                                                                                                                    
          PLOT    6   STATIC DEFORM.     2 - SUBCASE       1 - LOAD                                                                 
          PLOT    7   STATIC DEFORM.     2 - SUBCASE       1 - LOAD                                                                 
                                                 ORIGIN      4  USED IN THIS PLOT                                                   
1 STATIC AEROTHERMOELASTIC ANALYSIS OF A ROTOR BLADE                    / 95 X86_64 Windows_NT NASTRAN     / DEC 27, 16 / PAGE    60
      NASTRAN TEST PROBLEM NO. T16-01-1A                                                                                            
0                                                                                                                                   
                                                  MESSAGES FROM THE PLOT MODULE                                                   





 P L O T T E R    D A T A                                                                                                           
                                                                                                                                    
          THE FOLLOWING PLOTS ARE FOR A NASTPLT   DRUM    PLOTTER WITH    TYPING CAPABILITY                                         
                                                                                                                                    
          AN END-OF-FILE MARK FOLLOWS THE LAST PLOT                                                                                 
                                                                                                                                    
          THE FIRST COMMAND FOR EACH PLOT CONTAINS THE PLOT NUMBER                                                                  
                                                                                                                                    
          CSCALE =  1.00                                                                                                            
                                                                                                                                    
          PAPER SIZE = 10.0 X 10.0,  PAPER TYPE = VELLUM                                                                            
                                                                                                                                    
          PEN 1 - SIZE 1, BLACK                                                                                                     
                                                                                                                                    
          PEN 2 - SIZE 1, BLACK                                                                                                     
                                                                                                                                    
          PEN 3 - SIZE 1, BLACK                                                                                                     
                                                                                                                                    
          PEN 4 - SIZE 1, BLACK                                                                                                     
                                                                                                                                    
          PEN 5 - SIZE 1, BLACK                                                                                                     
                                                                                                                                    
          PEN 6 - SIZE 1, BLACK                                                                                                     
                                                                                                                                    
          PEN 7 - SIZE 1, BLACK                                                                                                     
                                                                                                                                    
          PEN 8 - SIZE 1, BLACK                                                                                                     
                                                                                                                                    
                                                                                                                                    




 E N G I N E E R I N G    D A T A                                                                                                   
                                                                                                                                    
          ORTHOGRAPHIC PROJECTION                                                                                                   
          ROTATIONS (DEGREES) - GAMMA =   0.00, BETA =   0.00, ALPHA =   0.00,  AXES = +Z,+X,+Y, SYMMETRIC                          
          SCALE (OBJECT-TO-PLOT SIZE) = 2.227927E+00                                                                                
                                                                                                                                    
          ORIGIN       1   -   X0 = -4.301828E+00, Y0 = -0.612309E+00     (INCHES)                                                  
          ORIGIN       2   -   X0 =  2.823151E-02, Y0 = -0.474000E+01     (INCHES)                                                  
          ORIGIN       3   -   X0 = -4.180000E+00, Y0 = -0.509836E+01     (INCHES)                                                  
          ORIGIN       4   -   X0 = -4.282722E+00, Y0 = -0.932401E+00     (INCHES)                                                  
          ORIGIN       5   -   X0 = -4.180000E+00, Y0 = -0.509836E+01     (INCHES)                                                  




                                                  PLOT MODULE MESSAGES CONTINUE                                                     
                                                                                                                                    
          PLOT    8   STATIC DEFORM.     2 - SUBCASE       1 - LOAD                                                                 
          PLOT    9   STATIC DEFORM.     2 - SUBCASE       1 - LOAD                                                                 
                                                 ORIGIN      5  USED IN THIS PLOT                                                   




                                        * * * END OF JOB * * *
1
 JOB TITLE =  STATIC AEROTHERMOELASTIC ANALYSIS OF A ROTOR BLADE                 
 DATE: 12/27/16
 END TIME: 15:49:29
 TOTAL WALL CLOCK TIME      0 SEC.
 
