





                                  ****
                                *      *
                               *        *
                               *  N A S T R A N
                               *        *
                                *      *
                                  ****


                           X86_64 COMPUTER SYSTEMS   
                              Windows_NT VERSION  

                          SYSTEM RELEASE -  1995 ED.

                                DISTRIBUTED BY

         COMPUTER SOFTWARE MANAGEMENT AND INFORMATION CENTER (COSMIC)
                 UNIVERSITY OF GEORGIA, ATHENS, GEORGIA 30602
                 PHONE: (706)542-3265      FAX: (706)542-4807
1                                                                       / 95 X86_64 Windows_NT NASTRAN     / OCT  2, 16 / PAGE     2
                                                                                                                                    
0                                                                                                                                   
                                                                                                         
                                                                                                         
                         INSTALLATION CENTER USER INFORMATION GIVEN IN THIS SECTION                      
                                                                                                         
                                     *********************************************                       
                                     *                                           *                       
                                     *  PLEASE READ THE COMMENT IN DEMO PROBLEM  *                       
                                     *  D01002A ABOUT SYSTEM TIMING CONSTANTS    *                       
                                     *                                           *                       
                                     *********************************************                       
                                                                                                         
                         ===X=    TOP OF PAGE REQUEST IF 'X' IS REPLACED BY '='                          
                                                                                                         
1                                                                       / 95 X86_64 Windows_NT NASTRAN     / OCT  2, 16 / PAGE     3
                                                                                                                                    
0                                                                                                                                   
0*** USER INFORMATION MESSAGE 225, GINO TIME CONSTANTS ARE BEING COMPUTED
     (SEE NASINFO FILE FOR ELIMINATION OF THESE COMPUTATIONS)
1                                                                       / 95 X86_64 Windows_NT NASTRAN     / OCT  2, 16 / PAGE     4
                                                                                                                                    
0        N A S T R A N    E X E C U T I V E    C O N T R O L    D E C K    E C H O                                                  
0                                                                                                                                   
                                                                                                                                    
                                                                                                                                    
     ID    D01061A,NASTRAN                                                           
     APP   DISP                                                                      
     SOL   1,1                                                                       
     TIME  5                                                                         
     CEND                                                                            
1 SOLID DISC WITH RADIALLY VARYING THERMAL LOAD                         / 95 X86_64 Windows_NT NASTRAN     / OCT  2, 16 / PAGE     5
      NASTRAN DEMONSTRATION PROBLEM NO. D01-06-1A                                                                                   
0     TRAPEZOIDAL RING ELEMENTS                                                                                                     
0                                        C A S E    C O N T R O L   D E C K   E C H O                                               
                 CARD                                                                                                               
                 COUNT                                                                                                              
                  1      TITLE    = SOLID DISC WITH RADIALLY VARYING THERMAL LOAD                        
                  2      SUBTITLE = NASTRAN DEMONSTRATION PROBLEM NO. D01-06-1A                          
                  3      LABEL    = TRAPEZOIDAL RING ELEMENTS                                            
                  4      SPC = 16                                                                        
                  5      TEMPERATURE(LOAD) = 16                                                          
                  6          OUTPUT                                                                      
                  7             SET 1 = 1,3,5,7,9,11,13,15,17,19,21,23,25,26                             
                  8             DISP  = 1                                                                
                  9             ELSTRESS = ALL                                                           
                 10      BEGIN BULK                                                                      


                        (NO. OF UNSORTED BULK DATA CARDS READ =    50, INCLUDING   0 COMMENT CARDS)
0*** USER INFORMATION MESSAGE 207, BULK DATA DECK IS NOT SORTED. NASTRAN WILL RE-ORDER THE INPUT DECK.
1 SOLID DISC WITH RADIALLY VARYING THERMAL LOAD                         / 95 X86_64 Windows_NT NASTRAN     / OCT  2, 16 / PAGE     6
      NASTRAN DEMONSTRATION PROBLEM NO. D01-06-1A                                                                                   
0     TRAPEZOIDAL RING ELEMENTS                                                                                                     
0                                                 S O R T E D   B U L K    D A T A    E C H O                                       
                     CARD                                                                                                           
                     COUNT        ---1--- +++2+++ ---3--- +++4+++ ---5--- +++6+++ ---7--- +++8+++ ---9--- +++10+++                  
                    1-        CTRAPRG 1       1       3       4       2       .0      12                      
                    2-        CTRAPRG 2       3       5       6       4       .0      12                      
                    3-        CTRAPRG 3       5       7       8       6       .0      12                      
                    4-        CTRAPRG 4       7       9       10      8       .0      12                      
                    5-        CTRAPRG 5       9       11      12      10      .0      12                      
                    6-        CTRAPRG 6       11      13      14      12      .0      12                      
                    7-        CTRAPRG 7       13      15      16      14      .0      12                      
                    8-        CTRAPRG 8       15      17      18      16      .0      12                      
                    9-        CTRAPRG 9       17      19      20      18      .0      12                      
                   10-        CTRAPRG 10      19      21      22      20      .0      12                      
                   11-        CTRAPRG 11      21      23      24      22      .0      12                      
                   12-        CTRAPRG 12      23      25      26      24      .0      12                      
                   13-        GRDSET                                                  2456                    
                   14-        GRID    1               .0                                                      
                   15-        GRID    2               .0              .01                                     
                   16-        GRID    3               .005                                                    
                   17-        GRID    4               .005            .01                                     
                   18-        GRID    5               .01                                                     
                   19-        GRID    6               .01             .01                                     
                   20-        GRID    7               .015                                                    
                   21-        GRID    8               .015            .01                                     
                   22-        GRID    9               .02                                                     
                   23-        GRID    10              .02             .01                                     
                   24-        GRID    11              .03                                                     
                   25-        GRID    12              .03             .01                                     
                   26-        GRID    13              .04                                                     
                   27-        GRID    14              .04             .01                                     
                   28-        GRID    15              .05                                                     
                   29-        GRID    16              .05             .01                                     
                   30-        GRID    17              .06                                                     
                   31-        GRID    18              .06             .01                                     
                   32-        GRID    19              .07                                                     
                   33-        GRID    20              .07             .01                                     
                   34-        GRID    21              .08                                                     
                   35-        GRID    22              .08             .01                                     
                   36-        GRID    23              .09                                                     
                   37-        GRID    24              .09             .01                                     
                   38-        GRID    25              .10                                                     
                   39-        GRID    26              .10             .01                                     
                   40-        MAT1    12      1.0+7           .3      .2587-3 1.0-7   .0                      
                   41-        SPC     16      1       13      .0      2       1       .0                      
                   42-        TEMP    16      1       100.    2       100.    3       99.75                   
                   43-        TEMP    16      4       99.75   5       99.0    6       99.0                    
                   44-        TEMP    16      7       97.75   8       97.75   9       96.0                    
                   45-        TEMP    16      10      96.0    11      91.0    12      91.0                    
                   46-        TEMP    16      13      84.0    14      84.0    15      75.0                    
                   47-        TEMP    16      16      75.0    17      64.0    18      64.0                    
1 SOLID DISC WITH RADIALLY VARYING THERMAL LOAD                         / 95 X86_64 Windows_NT NASTRAN     / OCT  2, 16 / PAGE     7
      NASTRAN DEMONSTRATION PROBLEM NO. D01-06-1A                                                                                   

      TRAPEZOIDAL RING ELEMENTS                                                                                                     

                                                  S O R T E D   B U L K    D A T A    E C H O                                       
                     CARD                                                                                                           
                     COUNT        ---1--- +++2+++ ---3--- +++4+++ ---5--- +++6+++ ---7--- +++8+++ ---9--- +++10+++                  
                   48-        TEMP    16      19      51.0    20      51.0    21      36.0                    
                   49-        TEMP    16      22      36.0    23      19.0    24      19.0                    
                   50-        TEMP    16      25      .0      26      .0                                      
                              ENDDATA
1 SOLID DISC WITH RADIALLY VARYING THERMAL LOAD                         / 95 X86_64 Windows_NT NASTRAN     / OCT  2, 16 / PAGE     8
      NASTRAN DEMONSTRATION PROBLEM NO. D01-06-1A                                                                                   
0     TRAPEZOIDAL RING ELEMENTS                                                                                                     
0*** USER INFORMATION MESSAGES FROM RESEQUENCING PROCESSOR - BANDIT     (CRI= 1,  MTH= 3,  MPC= 0,  DEP=-1,  PCH=-1)

                               BEFORE RESEQUENCING - - -
                                        BANDWIDTH            4
                                        PROFILE             87
                                        MAX WAVEFRONT        4
                                        AVG WAVEFRONT    3.346
                                        RMS WAVEFRONT    3.425
                                        RMS BANDWIDTH    3.425

                               AFTER RESEQUENCING BY GIBBS-POOLE-STOCKMEYER (GPS) ALGORITHM - - -
                                        BANDWIDTH            4
                                        PROFILE             87
                                        MAX WAVEFRONT        4
                                        AVG WAVEFRONT    3.346
                                        RMS WAVEFRONT    3.425
                                        RMS BANDWIDTH    3.425


                                                     *** BANDIT SUMMARY ***

                                                                        BEFORE     AFTER
                                        BANDWIDTH (B)                        4         4
                                        PROFILE (P)                         87        87
                                        MAXIMUM WAVEFRONT (C-MAX)            4         4
                                        AVERAGE WAVEFRONT (C-AVG)        3.346     3.346
                                        RMS WAVEFRONT (C-RMS)            3.425     3.425
                                        RMS BANDWITCH (B-RMS)            3.425     3.425
                                        NUMBER OF GRID POINTS (N)                     26
                                        NUMBER OF ELEMENTS (NON-RIGID)                12
                                        NUMBER OF RIGID ELEMENTS PROCESSED*            0
                                        NUMBER OF MPC  EQUATIONS PROCESSED*            0
                                        NUMBER OF COMPONENTS                           1
                                        MAXIMUM NODAL DEGREE                           5
                                        MINIMUM NODAL DEGREE                           3
                                        NUMBER OF UNIQUE EDGES                        61
                                        MATRIX DENSITY, PERCENT                   21.893
                                        NUMBER OF POINTS OF ZERO DEGREE                0
                                        BANDIT OPEN CORE                         1998969
                                        CRITERION*                         RMS WAVEFRONT
                                        METHOD USED*                                 GPS

                               (* THESE DEFAULT OPTIONS CAN BE OVERRIDDEN BY THE NASTRAN CARD)


                               BANDIT FINDS GRID POINT RE-SEQUENCING NOT NECESSARY
0         **NO ERRORS FOUND - EXECUTE NASTRAN PROGRAM**
0*** USER INFORMATION MESSAGE 238, TURN DIAG 38 ON FOR ADDITIONAL ELEMENT PROCESSING INFORMATION

0*** USER INFORMATION MESSAGE 3113,
     EMG MODULE PROCESSING DOUBLE PRECISION TRAPRG   ELEMENTS (ELEMENT TYPE  37) STARTING WITH ID        1
0*** USER INFORMATION MESSAGE 3035
     FOR SUBCASE NUMBER     1, EPSILON SUB E =  -4.7595857E-17
0*** SYSTEM WARNING MESSAGE 3022
+                                 (SEE PROG. MANUAL SEC. 4.9.7, OR USERS' MANUAL P. 6.5-3)
     DATA BLOCK ONRGY1   MAY BE REQUIRED AS INPUT AND IS NOT OUTPUT BY A PREVIOUS MODULE IN THE CURRENT DMAP ROUTE.
1 SOLID DISC WITH RADIALLY VARYING THERMAL LOAD                         / 95 X86_64 Windows_NT NASTRAN     / OCT  2, 16 / PAGE     9
      NASTRAN DEMONSTRATION PROBLEM NO. D01-06-1A                                                                                   
0     TRAPEZOIDAL RING ELEMENTS                                                                                                     
 
                                             D I S P L A C E M E N T   V E C T O R
 
      POINT ID.   TYPE          T1             T2             T3             R1             R2             R3
             1      G      0.0            0.0            0.0            0.0            0.0            0.0                           
             3      G      4.137375E-08   0.0            1.617766E-10   0.0            0.0            0.0                           
             5      G      8.247069E-08   0.0            6.340573E-10   0.0            0.0            0.0                           
             7      G      1.230682E-07   0.0            1.444846E-09   0.0            0.0            0.0                           
             9      G      1.628908E-07   0.0            2.402845E-09   0.0            0.0            0.0                           
            11      G      2.390447E-07   0.0            5.696855E-09   0.0            0.0            0.0                           
            13      G      3.093366E-07   0.0            1.021254E-08   0.0            0.0            0.0                           
            15      G      3.717856E-07   0.0            1.604565E-08   0.0            0.0            0.0                           
            17      G      4.244503E-07   0.0            2.318026E-08   0.0            0.0            0.0                           
            19      G      4.653846E-07   0.0            3.161587E-08   0.0            0.0            0.0                           
            21      G      4.926446E-07   0.0            4.135971E-08   0.0            0.0            0.0                           
            23      G      5.042711E-07   0.0            5.237277E-08   0.0            0.0            0.0                           
            25      G      4.983839E-07   0.0            6.487526E-08   0.0            0.0            0.0                           
            26      G      4.983834E-07   0.0            4.975327E-08   0.0            0.0            0.0                           
1 SOLID DISC WITH RADIALLY VARYING THERMAL LOAD                         / 95 X86_64 Windows_NT NASTRAN     / OCT  2, 16 / PAGE    10
      NASTRAN DEMONSTRATION PROBLEM NO. D01-06-1A                                                                                   
0     TRAPEZOIDAL RING ELEMENTS                                                                                                     
 
                  S T R E S S E S   F O R   T H E   T R A P E Z O I D A L   R I N G S     ( C T R A P R G )
     EL      STRESS               RADIAL                CIRCUMFERENTIAL                AXIAL                     SHEAR
     ID       POINT                 (X)                     (THETA)                     (Z)                       (ZX)
0       1       1              -2.474039E+01             -2.474039E+01             -2.192230E-01              1.244435E-01          
                2              -2.430206E+01             -2.430206E+01             -2.976990E-02              1.244488E-01          
                3              -2.430200E+01             -2.430200E+01             -2.973938E-02             -1.244354E-01          
                4              -2.474033E+01             -2.474033E+01             -2.191925E-01             -1.244431E-01          
                5              -2.452119E+01             -2.452119E+01             -1.244965E-01              3.814697E-06          
0       2       1              -2.504733E+01             -2.462146E+01             -3.491821E-01              3.632984E-01          
                2              -2.387700E+01             -2.366411E+01              9.443665E-02              3.633709E-01          
                3              -2.387636E+01             -2.366364E+01              9.475708E-02             -3.633118E-01          
                4              -2.504681E+01             -2.462119E+01             -3.489532E-01             -3.633804E-01          
                5              -2.448849E+01             -2.420467E+01             -1.538391E-01             -3.814697E-06          
0       3       1              -2.522168E+01             -2.424036E+01             -4.818726E-01              6.237621E-01          
                2              -2.327759E+01             -2.262338E+01              2.147980E-01              6.236801E-01          
                3              -2.327820E+01             -2.262361E+01              2.145233E-01             -6.237564E-01          
                4              -2.522218E+01             -2.424033E+01             -4.819946E-01             -6.236725E-01          
                5              -2.427440E+01             -2.348918E+01             -1.581879E-01              0.0                   
0       4       1              -2.536394E+01             -2.351753E+01             -6.793671E-01              7.369194E-01          
                2              -2.244048E+01             -2.105571E+01              7.702026E-01              7.369227E-01          
                3              -2.244044E+01             -2.105569E+01              7.702332E-01             -7.369156E-01          
                4              -2.536391E+01             -2.351753E+01             -6.793365E-01             -7.369156E-01          
                5              -2.392694E+01             -2.234435E+01              2.070618E-02              3.814697E-06          
0       5       1              -2.714015E+01             -2.306981E+01             -1.243896E+00              1.266926E+00          
                2              -1.945834E+01             -1.674481E+01              1.370422E+00              1.266830E+00          
                3              -1.945874E+01             -1.674504E+01              1.370224E+00             -1.266914E+00          
                4              -2.714052E+01             -2.306996E+01             -1.244049E+00             -1.266815E+00          
                5              -2.340117E+01             -2.014485E+01             -3.858948E-02              3.814697E-06          
0       6       1              -2.734967E+01             -2.012680E+01             -2.011581E+00              1.736702E+00          
                2              -1.641402E+01             -1.099695E+01              1.977158E+00              1.736717E+00          
                3              -1.641402E+01             -1.099701E+01              1.977142E+00             -1.736691E+00          
                4              -2.734966E+01             -2.012689E+01             -2.011612E+00             -1.736706E+00          
                5              -2.197859E+01             -1.578761E+01             -1.139374E-01              1.907349E-06          
0       7       1              -2.697177E+01             -1.552164E+01             -2.547516E+00              2.243416E+00          
                2              -1.291937E+01             -3.759262E+00              2.531311E+00              2.243353E+00          
                3              -1.291962E+01             -3.759506E+00              2.531174E+00             -2.243397E+00          
                4              -2.697202E+01             -1.552182E+01             -2.547653E+00             -2.243336E+00          
                5              -2.004109E+01             -9.863205E+00             -1.035767E-01              1.335144E-05          
1 SOLID DISC WITH RADIALLY VARYING THERMAL LOAD                         / 95 X86_64 Windows_NT NASTRAN     / OCT  2, 16 / PAGE    11
      NASTRAN DEMONSTRATION PROBLEM NO. D01-06-1A                                                                                   
0     TRAPEZOIDAL RING ELEMENTS                                                                                                     
 
                  S T R E S S E S   F O R   T H E   T R A P E Z O I D A L   R I N G S     ( C T R A P R G )
     EL      STRESS               RADIAL                CIRCUMFERENTIAL                AXIAL                     SHEAR
     ID       POINT                 (X)                     (THETA)                     (Z)                       (ZX)
0       8       1              -2.609059E+01             -9.404068E+00             -3.113464E+00              2.743927E+00          
                2              -8.908356E+00              4.996979E+00              3.092621E+00              2.744095E+00          
                3              -8.907684E+00              4.997253E+00              3.092911E+00             -2.743942E+00          
                4              -2.609003E+01             -9.403915E+00             -3.113251E+00             -2.744110E+00          
                5              -1.759398E+01             -2.424622E+00             -1.051331E-01              7.629395E-06          
0       9       1              -2.469945E+01             -1.770615E+00             -3.674988E+00              3.244476E+00          
                2              -4.389702E+00              1.526357E+01              3.656654E+00              3.244568E+00          
                3              -4.389366E+00              1.526376E+01              3.656731E+00             -3.244484E+00          
                4              -2.469919E+01             -1.770477E+00             -3.674896E+00             -3.244576E+00          
                5              -1.463896E+01              6.526108E+00             -1.035614E-01             -1.144409E-05          
0      10       1              -2.279738E+01              7.374672E+00             -4.232323E+00              3.747726E+00          
                2               6.312027E-01              2.703175E+01              4.205696E+00              3.747531E+00          
                3               6.304321E-01              2.703137E+01              4.205345E+00             -3.747719E+00          
                4              -2.279807E+01              7.374397E+00             -4.232567E+00             -3.747528E+00          
                5              -1.117765E+01              1.698309E+01             -1.077194E-01              1.525879E-05          
0      11       1              -2.041380E+01              1.801241E+01             -4.813599E+00              4.235672E+00          
                2               6.177227E+00              4.033382E+01              4.834991E+00              4.235500E+00          
                3               6.176468E+00              4.033342E+01              4.834694E+00             -4.235693E+00          
                4              -2.041447E+01              1.801208E+01             -4.813843E+00             -4.235508E+00          
                5              -7.212791E+00              2.895319E+01             -8.357239E-02             -1.907349E-06          
0      12       1              -1.739917E+01              3.022967E+01             -5.269096E+00              4.808365E+00          
                2               1.210365E+01              5.496946E+01              4.999944E+00              4.808465E+00          
                3               1.210394E+01              5.496951E+01              4.999997E+00             -4.808365E+00          
                4              -1.739891E+01              3.022968E+01             -5.268974E+00             -4.808443E+00          
                5              -2.741629E+00              4.238025E+01             -2.285194E-01             -8.583069E-06          
1 SOLID DISC WITH RADIALLY VARYING THERMAL LOAD                         / 95 X86_64 Windows_NT NASTRAN     / OCT  2, 16 / PAGE    12
      NASTRAN DEMONSTRATION PROBLEM NO. D01-06-1A                                                                                   

      TRAPEZOIDAL RING ELEMENTS                                                                                                     




0*** SYSTEM WARNING MESSAGE 3022
+                                 (SEE PROG. MANUAL SEC. 4.9.7, OR USERS' MANUAL P. 6.5-3)
     DATA BLOCK ONRGY1   MAY BE REQUIRED AS INPUT AND IS NOT OUTPUT BY A PREVIOUS MODULE IN THE CURRENT DMAP ROUTE.




                                        * * * END OF JOB * * *
1
 JOB TITLE =  SOLID DISC WITH RADIALLY VARYING THERMAL LOAD                      
 DATE: 10/ 2/16
 END TIME: 18:15:35
 TOTAL WALL CLOCK TIME      0 SEC.
 
