





                                  ****
                                *      *
                               *        *
                               *  N A S T R A N
                               *        *
                                *      *
                                  ****


                           X86_64 COMPUTER SYSTEMS   
                              Windows_NT VERSION  

                          SYSTEM RELEASE -  1995 ED.

                                DISTRIBUTED BY

         COMPUTER SOFTWARE MANAGEMENT AND INFORMATION CENTER (COSMIC)
                 UNIVERSITY OF GEORGIA, ATHENS, GEORGIA 30602
                 PHONE: (706)542-3265      FAX: (706)542-4807
1                                                                       / 95 X86_64 Windows_NT NASTRAN     / DEC 27, 16 / PAGE     2
                                                                                                                                    
0                                                                                                                                   
                                                                                                         
                                                                                                         
                         INSTALLATION CENTER USER INFORMATION GIVEN IN THIS SECTION                      
                                                                                                         
                                     *********************************************                       
                                     *                                           *                       
                                     *  PLEASE READ THE COMMENT IN DEMO PROBLEM  *                       
                                     *  D01002A ABOUT SYSTEM TIMING CONSTANTS    *                       
                                     *                                           *                       
                                     *********************************************                       
                                                                                                         
                         ===X=    TOP OF PAGE REQUEST IF 'X' IS REPLACED BY '='                          
                                                                                                         
1                                                                       / 95 X86_64 Windows_NT NASTRAN     / DEC 27, 16 / PAGE     3
                                                                                                                                    
0                                                                                                                                   
0*** USER INFORMATION MESSAGE 225, GINO TIME CONSTANTS ARE BEING COMPUTED
     (SEE NASINFO FILE FOR ELIMINATION OF THESE COMPUTATIONS)
1                                                                       / 95 X86_64 Windows_NT NASTRAN     / DEC 27, 16 / PAGE     4
                                                                                                                                    
0        N A S T R A N    E X E C U T I V E    C O N T R O L    D E C K    E C H O                                                  
0                                                                                                                                   
                                                                                                                                    
                                                                                                                                    
     ID    T13022A,NASTRAN                                                           
     APP   DISP                                                                      
     DIAG  38                                                                        
     SOL   13                                                                        
     TIME  20                                                                        
     $                                                                               
     $   THIS PROBLEM DEMONSTRATES THE EFFECTS OF PRESSURE ON THE DYNAMICS OF        
     $   PRE-STIFFENED STRUCTURE USEING CPSE3 AND CPSE4 DIFFERNTIAL STIFFNESS        
     $   ELEMENTS                                                                    
     $                                                                               
     $   THIS FREE-FREE UNIT LENGTH CYLINDER PROBLEM GIVES THE FOLLOWING             
     $   NATURAL FREQUENCIES (HZ)                                                    
     $                                                                               
     $        WITHOUT THE PRESSURE        WITH  THE PRESSURE                         
     $        STIFFNESS ELEMENTS          STIFFNESS ELEMENTS                         
     $        --------------------        ------------------                         
     $               3.4432                     0.0053                               
     $               4.6821                     5.3927                               
     $              13.2614                    13.6570                               
     $              22.4341                    22.6865                               
     $              33.1777                    33.3529                               
     $              46.1936                    46.3210                               
     $              61.9870                    62.0752                               
     $              81.8336                    81.8986                               
     $                                                                               
     $   THE FOLLOWING DMAP ALTER ALLOWS SOL 13 TO USE DIFFERENT BOUNDARY            
     $   CONDITION SPC'S FOR THE STATIC SOLUTION (SUBCASE 1 AND 2) AND THE           
     $   NORMAL MODE SOLUTION (SUBCASE 3)                                            
     $                                                                               
     $   THIS DMAP ALTER WILL CAUSE A NUMBER OF WARNING MESSAGES OF POTENTIAL        
     $   ERRORS PRINTED, BUT IT WORKS OK                                             
     $                                                                               
     ALTER  117 $  AFTER OFP MODULE AND BEFORE DPD IN RIGID FORMAT 13                
     GP4    CASECC,GEOM4,EQEXIN,GPDT,BGPDT,CSTM,GPST/RG,YS,USET,ASET,OGPST/          
            LUSET/S,N,MPCF1/S,N,MPCF2/,S,N,SINGLE/S,N,OMIT/S,N,REACT/                
            S,N,NSKIP/S,N,REPEAT/S,N,NOSET/S,N,NOL/S,N,NOA/C,Y,ASETOUT/              
            S,N,AUTOSPC $                                                            
     PARAM  //*AND*/NOSR/SINGLE/REACT $                                              
     PURGE  GM/MPCF1/GO,KOO,LOO,PO,UOOV,RUOV/OMIT/PS,KFS,KSS/SINGLE/QG/NOSR $        
     OFP    OGPST,,,,,//S,N,CARDNO $                                                 
     LABEL  LBL15D $                                                                 
     EQUIV  KGG,KNN/MPCF1 $                                                          
     COND   LBL16D,MPCF1 $                                                           
     MCE1   USET,RG/GM $                                                             
     MCE2   USET,GM,KGG,,,/KNN,,, $                                                  
     LABEL  LBL16D $                                                                 
1                                                                       / 95 X86_64 Windows_NT NASTRAN     / DEC 27, 16 / PAGE     5
                                                                                                                                    
0        N A S T R A N    E X E C U T I V E    C O N T R O L    D E C K    E C H O                                                  
0                                                                                                                                   
                                                                                                                                    
                                                                                                                                    
     EQUIV  KNN,KFF/SINGLE $                                                         
     COND   LBL17D,SINGLE $                                                          
     SCE1   USET,KNN,,,/KFF,KFS,KSS,,, $                                             
     LABEL  LBL17D $                                                                 
     EQUIV  KFF,KAA/OMIT $                                                           
     COND   LBL18D,OMIT $                                                            
     SMP1   USET,KFF,,,/GO,KAA,KOO,LOO,,,,, $                                        
     LABEL  LBL18D $                                                                 
     EQUIV  KDGG,KDNN/MPCF2 /MGG,MNN/MPCF2 $                                         
     COND   LBL19D,MPCF2 $                                                           
     MCE2   USET,GM,KDGG,MGG,,/KDNN,MNN,, $                                          
     LABEL  LBL19D $                                                                 
     EQUIV  KDNN,KDFF/SINGLE /MNN,MFF/SINGLE $                                       
     COND   LBL20D,SINGLE $                                                          
     SCE1   USET,KDNN,MNN,,/KDFF,KDFS,KDSS,MFF,, $                                   
     LABEL  LBL20D $                                                                 
     EQUIV  KDFF,KDAA/OMIT /MFF,MAA/OMIT $                                           
     COND   LBL21D,OMIT $                                                            
     SMP2   USET,GO,KDFF/KDAA $                                                      
     SMP2   USET,GO,MFF/MAA $                                                        
     LABEL  LBL21D $                                                                 
     PARAM  //*ADD*/DSCOSET/-1/0 $                                                   
     PARAM  //*MPY*/NDSKIP/0/0 $                                                     
     DSMG2  MPT,KAA,KDAA,KFS,KDFS,KSS,KDSS,PL,PS,YS,UOOV/KBLL,KBFS,KBSS,             
            PBL,PBS,YBS,UBOOV/S,N,NDSKIP/S,N,REPEATD/DSCOSET $                       
     ENDALTER $                                                                      
     $                                                                               
     CEND                                                                            
1 FREE-FREE UNIT LENGTH PRESSURIZED CYLINDER, QUARTER MODEL             / 95 X86_64 Windows_NT NASTRAN     / DEC 27, 16 / PAGE     6
      NASTRAN TEST PROBLEM NO. T13-02-2A                                                                                            
0     NORMAL MODES WITH DIFFERENTIAL STIFFNESS USING CPSE3/4 ELEMENTS                                                               
0                                        C A S E    C O N T R O L   D E C K   E C H O                                               
                 CARD                                                                                                               
                 COUNT                                                                                                              
                  1      TITLE    = FREE-FREE UNIT LENGTH PRESSURIZED CYLINDER, QUARTER MODEL            
                  2      SUBTITLE = NASTRAN TEST PROBLEM NO. T13-02-2A                                   
                  3      LABEL  = NORMAL MODES WITH DIFFERENTIAL STIFFNESS USING CPSE3/4 ELEMENTS        
                  4      ECHO   = BOTH                                                                   
                  5      DISP   = ALL                                                                    
                  6      $                                                                               
                  7      SUBCASE  1                                                                      
                  8      LABEL  = STATIC SOLUTION                                                        
                  9      LOAD   = 1                                                                      
                 10      SPC    = 1                                                                      
                 11      OLOAD  = ALL                                                                    
                 12      $                                                                               
                 13      SUBCASE  2                                                                      
                 14      LABEL  = SECOND ORDER STATICS SOLUTION                                          
                 15      SPC    = 4                                                                      
                 16      DSCOEFFICIENT = DEFAULT                                                         
                 17      $                                                                               
                 18      SUBCASE  3                                                                      
                 19      LABEL  = NORMAL MODES WITH DIFFERENTIAL STIFFNESS                               
                 20      SPC    = 4                                                                      
                 21      METHOD = 1                                                                      
                 22      $                                                                               
                 23      BEGIN BULK                                                                      
1 FREE-FREE UNIT LENGTH PRESSURIZED CYLINDER, QUARTER MODEL             / 95 X86_64 Windows_NT NASTRAN     / DEC 27, 16 / PAGE     7
      NASTRAN TEST PROBLEM NO. T13-02-2A                                                                                            
0     NORMAL MODES WITH DIFFERENTIAL STIFFNESS USING CPSE3/4 ELEMENTS                                                               
0                                             I N P U T   B U L K   D A T A   D E C K   E C H O                                     
                                                                                                                                    
                                  ---1--- +++2+++ ---3--- +++4+++ ---5--- +++6+++ ---7--- +++8+++ ---9--- +++10+++                  
                              -FF-    PARAM,COUPMASS,1                                                                              
                              -FF-    CORD2C,1  0  0. 0. 0.  0. 0. 1.                                                               
                              -FF-    ,      1. 0. 0.                                                                               
                              -FF-    GRID,  1  1  5.0   0.0  0.5,, 345                                                             
                              -FF-    GRID,  2  1  5.0   0.0 -0.5,  ==                                                              
                              -FF-    GRID,  3  1  5.0  11.0  0.5,  ==                                                              
                              -FF-    GRID,  4  1  5.0  11.0 -0.5,  ==                                                              
                              -FF-    GRID,  5  1  5.0  22.0  0.5,  ==                                                              
                              -FF-    GRID,  6  1  5.0  22.0 -0.5,  ==                                                              
                              -FF-    GRID,  7  1  5.0  33.0  0.5,  ==                                                              
                              -FF-    GRID,  8  1  5.0  33.0 -0.5,  ==                                                              
                              -FF-    GRID,  9  1  5.0  45.0  0.5,  ==                                                              
                              -FF-    GRID, 10  1  5.0  45.0 -0.5,  ==                                                              
                              -FF-    GRID, 11  1  5.0  56.0  0.5,  ==                                                              
                              -FF-    GRID, 12  1  5.0  56.0 -0.5,  ==                                                              
                              -FF-    GRID, 13  1  5.0  67.0  0.5,  ==                                                              
                              -FF-    GRID, 14  1  5.0  67.0 -0.5,  ==                                                              
                              -FF-    GRID, 15  1  5.0  78.0  0.5,  ==                                                              
                              -FF-    GRID, 16  1  5.0  78.0 -0.5,  ==                                                              
                              -FF-    GRID, 17  1  5.0  90.0  0.5,  ==                                                              
                              -FF-    GRID, 18  1  5.0  90.0 -0.5,  ==                                                              
                              $                                                                                             
                              $ SPC=1 FOR SYMMETRY-SYMMETRY BC'S                                                            
                              $                                                                                             
                              -FF-    SPC, 1  1 26,,  2 26                                                                          
                              -FF-    SPC, 1 17 16,, 18 16                                                                          
                              $                                                                                             
                              $ SPC=2 FOR SYMMETRY-ANTISYMMETRY BC'S                                                        
                              $                                                                                             
                              -FF-    SPC, 2  1  1,,  2  1                                                                          
                              -FF-    SPC, 2 17 16,, 18 16                                                                          
                              $                                                                                             
                              $ SPC=3 FOR ANTISYMMETRY-SYMMETRY BC'S                                                        
                              $                                                                                             
                              -FF-    SPC, 3  1 26,,  2 26                                                                          
                              -FF-    SPC, 3 17  2,, 18  2                                                                          
                              $                                                                                             
                              $ SPC=4 FOR ANTISYMMETRY-ANTISYMMETRY BC'S                                                    
                              $                                                                                             
                              -FF-    SPC, 4, 1, 1,,  2, 1                                                                          
                              -FF-    SPC, 4,17, 2,, 18, 2                                                                          
                              $                                                                                             
                              -FF-    CQUAD2, 1, 1, 1, 2, 4, 3                                                                      
                              -FF-    =(7), *(1),=,*(2), ///                                                                        
                              -FF-    PQUAD2, 1, 1, 0.1                                                                             
                              $                                                                                             
                              -FF-    CPSE3, 10  2  1  2  4                                                                         
1 FREE-FREE UNIT LENGTH PRESSURIZED CYLINDER, QUARTER MODEL             / 95 X86_64 Windows_NT NASTRAN     / DEC 27, 16 / PAGE     8
      NASTRAN TEST PROBLEM NO. T13-02-2A                                                                                            

      NORMAL MODES WITH DIFFERENTIAL STIFFNESS USING CPSE3/4 ELEMENTS                                                               

                                              I N P U T   B U L K   D A T A   D E C K   E C H O                                     
                                                                                                                                    
                                  ---1--- +++2+++ ---3--- +++4+++ ---5--- +++6+++ ---7--- +++8+++ ---9--- +++10+++                  
                              -FF-    =(3), *(1),=,*(2), //                                                                         
                              -FF-    CPSE3, 15  2  4  3  1                                                                         
                              -FF-    =(3), *(1),=,*(2), //                                                                         
                              $                                                                                             
                              -FF-    CPSE4, 20  2  9 10 12 11                                                                      
                              -FF-    =(3), *(1),=,*(2), ///                                                                        
                              $                                                                                             
                              -FF-    PPSE,  2  1000.                                                                               
                              -FF-    PLOAD2,1  1000. 1 THRU 8                                                                      
                              -FF-    MAT1,  1  1.0E7,, 0.33   4.28                                                                 
                              -FF-    EIGR,  1  FEER,,  1.0E-8,, 10                                                                 
                              -FF-    , MAX                                                                                         
                              ENDDATA                                                                                       


                        TOTAL COUNT=     59
0*** USER INFORMATION MESSAGE 207, BULK DATA DECK IS NOT SORTED. NASTRAN WILL RE-ORDER THE INPUT DECK.
1 FREE-FREE UNIT LENGTH PRESSURIZED CYLINDER, QUARTER MODEL             / 95 X86_64 Windows_NT NASTRAN     / DEC 27, 16 / PAGE     9
      NASTRAN TEST PROBLEM NO. T13-02-2A                                                                                            
0     NORMAL MODES WITH DIFFERENTIAL STIFFNESS USING CPSE3/4 ELEMENTS                                                               
0                                                 S O R T E D   B U L K    D A T A    E C H O                                       
                     CARD                                                                                                           
                     COUNT        ---1--- +++2+++ ---3--- +++4+++ ---5--- +++6+++ ---7--- +++8+++ ---9--- +++10+++                  
                    1-        CORD2C  1       0       0.      0.      0.      0.      0.      1.      +C0N0001
                    2-        +C0N00011.      0.      0.                                                      
                    3-        CPSE3   10      2       1       2       4                                       
                    4-        CPSE3   11      2       3       4       6                                       
                    5-        CPSE3   12      2       5       6       8                                       
                    6-        CPSE3   13      2       7       8       10                                      
                    7-        CPSE3   15      2       4       3       1                                       
                    8-        CPSE3   16      2       6       5       3                                       
                    9-        CPSE3   17      2       8       7       5                                       
                   10-        CPSE3   18      2       10      9       7                                       
                   11-        CPSE4   20      2       9       10      12      11                              
                   12-        CPSE4   21      2       11      12      14      13                              
                   13-        CPSE4   22      2       13      14      16      15                              
                   14-        CPSE4   23      2       15      16      18      17                              
                   15-        CQUAD2  1       1       1       2       4       3                               
                   16-        CQUAD2  2       1       3       4       6       5                               
                   17-        CQUAD2  3       1       5       6       8       7                               
                   18-        CQUAD2  4       1       7       8       10      9                               
                   19-        CQUAD2  5       1       9       10      12      11                              
                   20-        CQUAD2  6       1       11      12      14      13                              
                   21-        CQUAD2  7       1       13      14      16      15                              
                   22-        CQUAD2  8       1       15      16      18      17                              
                   23-        EIGR    1       FEER            1.0E-8          10                      +C0N0002
                   24-        +C0N0002MAX                                                                     
                   25-        GRID    1       1       5.0     0.0     0.5             345                     
                   26-        GRID    2       1       5.0     0.0     -0.5            345                     
                   27-        GRID    3       1       5.0     11.0    0.5             345                     
                   28-        GRID    4       1       5.0     11.0    -0.5            345                     
                   29-        GRID    5       1       5.0     22.0    0.5             345                     
                   30-        GRID    6       1       5.0     22.0    -0.5            345                     
                   31-        GRID    7       1       5.0     33.0    0.5             345                     
                   32-        GRID    8       1       5.0     33.0    -0.5            345                     
                   33-        GRID    9       1       5.0     45.0    0.5             345                     
                   34-        GRID    10      1       5.0     45.0    -0.5            345                     
                   35-        GRID    11      1       5.0     56.0    0.5             345                     
                   36-        GRID    12      1       5.0     56.0    -0.5            345                     
                   37-        GRID    13      1       5.0     67.0    0.5             345                     
                   38-        GRID    14      1       5.0     67.0    -0.5            345                     
                   39-        GRID    15      1       5.0     78.0    0.5             345                     
                   40-        GRID    16      1       5.0     78.0    -0.5            345                     
                   41-        GRID    17      1       5.0     90.0    0.5             345                     
                   42-        GRID    18      1       5.0     90.0    -0.5            345                     
                   43-        MAT1    1       1.0E7           0.33    4.28                                    
                   44-        PARAM   COUPMASS1                                                               
                   45-        PLOAD2  1       1000.   1       THRU    8                                       
                   46-        PPSE    2       1000.                                                           
                   47-        PQUAD2  1       1       0.1                                                     
1 FREE-FREE UNIT LENGTH PRESSURIZED CYLINDER, QUARTER MODEL             / 95 X86_64 Windows_NT NASTRAN     / DEC 27, 16 / PAGE    10
      NASTRAN TEST PROBLEM NO. T13-02-2A                                                                                            

      NORMAL MODES WITH DIFFERENTIAL STIFFNESS USING CPSE3/4 ELEMENTS                                                               

                                                  S O R T E D   B U L K    D A T A    E C H O                                       
                     CARD                                                                                                           
                     COUNT        ---1--- +++2+++ ---3--- +++4+++ ---5--- +++6+++ ---7--- +++8+++ ---9--- +++10+++                  
                   48-        SPC     1       1       26              2       26                              
                   49-        SPC     1       17      16              18      16                              
                   50-        SPC     2       1       1               2       1                               
                   51-        SPC     2       17      16              18      16                              
                   52-        SPC     3       1       26              2       26                              
                   53-        SPC     3       17      2               18      2                               
                   54-        SPC     4       1       1               2       1                               
                   55-        SPC     4       17      2               18      2                               
                              ENDDATA
1 FREE-FREE UNIT LENGTH PRESSURIZED CYLINDER, QUARTER MODEL             / 95 X86_64 Windows_NT NASTRAN     / DEC 27, 16 / PAGE    11
      NASTRAN TEST PROBLEM NO. T13-02-2A                                                                                            
0     NORMAL MODES WITH DIFFERENTIAL STIFFNESS USING CPSE3/4 ELEMENTS                                                               
0         COSMIC / NASTRAN DMAP COMPILER - SOURCE LISTING                                                                           
                                                                                                                                    
                                                                                                                                    
0*** USER WARNING MESSAGE   27,
     LABEL NAMED LBL15D   NOT REFERENCED
1 FREE-FREE UNIT LENGTH PRESSURIZED CYLINDER, QUARTER MODEL             / 95 X86_64 Windows_NT NASTRAN     / DEC 27, 16 / PAGE    12
      NASTRAN TEST PROBLEM NO. T13-02-2A                                                                                            
0     NORMAL MODES WITH DIFFERENTIAL STIFFNESS USING CPSE3/4 ELEMENTS                                                               
0                                                                                                                                   
                                                                                                                                    
                                                                                                                                    

 *** USER POTENTIALLY FATAL MESSAGE  45,
                              POSSIBLE ERROR IN DMAP INSTRUCTION GP4        INSTRUCTION NO. 117
     DATA BLOCK NAMED RG       ALREADY APPEARED AS OUTPUT

 *** USER POTENTIALLY FATAL MESSAGE  45,
                              POSSIBLE ERROR IN DMAP INSTRUCTION GP4        INSTRUCTION NO. 117
     DATA BLOCK NAMED YS       ALREADY APPEARED AS OUTPUT

 *** USER POTENTIALLY FATAL MESSAGE  45,
                              POSSIBLE ERROR IN DMAP INSTRUCTION GP4        INSTRUCTION NO. 117
     DATA BLOCK NAMED USET     ALREADY APPEARED AS OUTPUT

 *** USER POTENTIALLY FATAL MESSAGE  45,
                              POSSIBLE ERROR IN DMAP INSTRUCTION GP4        INSTRUCTION NO. 117
     DATA BLOCK NAMED ASET     ALREADY APPEARED AS OUTPUT

 *** USER POTENTIALLY FATAL MESSAGE  45,
                              POSSIBLE ERROR IN DMAP INSTRUCTION GP4        INSTRUCTION NO. 117
     DATA BLOCK NAMED OGPST    ALREADY APPEARED AS OUTPUT

 *** USER POTENTIALLY FATAL MESSAGE  45,
                              POSSIBLE ERROR IN DMAP INSTRUCTION MCE1       INSTRUCTION NO. 117
     DATA BLOCK NAMED GM       ALREADY APPEARED AS OUTPUT

 *** USER POTENTIALLY FATAL MESSAGE  45,
                              POSSIBLE ERROR IN DMAP INSTRUCTION MCE2       INSTRUCTION NO. 117
     DATA BLOCK NAMED KNN      ALREADY APPEARED AS OUTPUT

 *** USER POTENTIALLY FATAL MESSAGE  45,
                              POSSIBLE ERROR IN DMAP INSTRUCTION SCE1       INSTRUCTION NO. 117
     DATA BLOCK NAMED KFF      ALREADY APPEARED AS OUTPUT

 *** USER POTENTIALLY FATAL MESSAGE  45,
                              POSSIBLE ERROR IN DMAP INSTRUCTION SCE1       INSTRUCTION NO. 117
     DATA BLOCK NAMED KFS      ALREADY APPEARED AS OUTPUT

 *** USER POTENTIALLY FATAL MESSAGE  45,
                              POSSIBLE ERROR IN DMAP INSTRUCTION SCE1       INSTRUCTION NO. 117
     DATA BLOCK NAMED KSS      ALREADY APPEARED AS OUTPUT

 *** USER POTENTIALLY FATAL MESSAGE  45,
                              POSSIBLE ERROR IN DMAP INSTRUCTION SMP1       INSTRUCTION NO. 117
     DATA BLOCK NAMED GO       ALREADY APPEARED AS OUTPUT

 *** USER POTENTIALLY FATAL MESSAGE  45,
                              POSSIBLE ERROR IN DMAP INSTRUCTION SMP1       INSTRUCTION NO. 117
     DATA BLOCK NAMED KAA      ALREADY APPEARED AS OUTPUT

 *** USER POTENTIALLY FATAL MESSAGE  45,
                              POSSIBLE ERROR IN DMAP INSTRUCTION SMP1       INSTRUCTION NO. 117
     DATA BLOCK NAMED KOO      ALREADY APPEARED AS OUTPUT

 *** USER POTENTIALLY FATAL MESSAGE  45,
                              POSSIBLE ERROR IN DMAP INSTRUCTION SMP1       INSTRUCTION NO. 117
     DATA BLOCK NAMED LOO      ALREADY APPEARED AS OUTPUT

 *** USER POTENTIALLY FATAL MESSAGE  45,
                              POSSIBLE ERROR IN DMAP INSTRUCTION MCE2       INSTRUCTION NO. 117
     DATA BLOCK NAMED KDNN     ALREADY APPEARED AS OUTPUT

 *** USER POTENTIALLY FATAL MESSAGE  45,
                              POSSIBLE ERROR IN DMAP INSTRUCTION MCE2       INSTRUCTION NO. 117
     DATA BLOCK NAMED MNN      ALREADY APPEARED AS OUTPUT
1 FREE-FREE UNIT LENGTH PRESSURIZED CYLINDER, QUARTER MODEL             / 95 X86_64 Windows_NT NASTRAN     / DEC 27, 16 / PAGE    13
      NASTRAN TEST PROBLEM NO. T13-02-2A                                                                                            
0     NORMAL MODES WITH DIFFERENTIAL STIFFNESS USING CPSE3/4 ELEMENTS                                                               
0                                                                                                                                   
                                                                                                                                    
                                                                                                                                    

 *** USER POTENTIALLY FATAL MESSAGE  45,
                              POSSIBLE ERROR IN DMAP INSTRUCTION SCE1       INSTRUCTION NO. 117
     DATA BLOCK NAMED KDFF     ALREADY APPEARED AS OUTPUT

 *** USER POTENTIALLY FATAL MESSAGE  45,
                              POSSIBLE ERROR IN DMAP INSTRUCTION SCE1       INSTRUCTION NO. 117
     DATA BLOCK NAMED KDFS     ALREADY APPEARED AS OUTPUT

 *** USER POTENTIALLY FATAL MESSAGE  45,
                              POSSIBLE ERROR IN DMAP INSTRUCTION SCE1       INSTRUCTION NO. 117
     DATA BLOCK NAMED KDSS     ALREADY APPEARED AS OUTPUT

 *** USER POTENTIALLY FATAL MESSAGE  45,
                              POSSIBLE ERROR IN DMAP INSTRUCTION SCE1       INSTRUCTION NO. 117
     DATA BLOCK NAMED MFF      ALREADY APPEARED AS OUTPUT

 *** USER POTENTIALLY FATAL MESSAGE  45,
                              POSSIBLE ERROR IN DMAP INSTRUCTION SMP2       INSTRUCTION NO. 117
     DATA BLOCK NAMED KDAA     ALREADY APPEARED AS OUTPUT

 *** USER POTENTIALLY FATAL MESSAGE  45,
                              POSSIBLE ERROR IN DMAP INSTRUCTION SMP2       INSTRUCTION NO. 117
     DATA BLOCK NAMED MAA      ALREADY APPEARED AS OUTPUT

 *** USER POTENTIALLY FATAL MESSAGE  45,
                              POSSIBLE ERROR IN DMAP INSTRUCTION DSMG2      INSTRUCTION NO. 117
     DATA BLOCK NAMED KBLL     ALREADY APPEARED AS OUTPUT

 *** USER POTENTIALLY FATAL MESSAGE  45,
                              POSSIBLE ERROR IN DMAP INSTRUCTION DSMG2      INSTRUCTION NO. 117
     DATA BLOCK NAMED KBFS     ALREADY APPEARED AS OUTPUT

 *** USER POTENTIALLY FATAL MESSAGE  45,
                              POSSIBLE ERROR IN DMAP INSTRUCTION DSMG2      INSTRUCTION NO. 117
     DATA BLOCK NAMED KBSS     ALREADY APPEARED AS OUTPUT

 *** USER POTENTIALLY FATAL MESSAGE  45,
                              POSSIBLE ERROR IN DMAP INSTRUCTION DSMG2      INSTRUCTION NO. 117
     DATA BLOCK NAMED PBL      ALREADY APPEARED AS OUTPUT

 *** USER POTENTIALLY FATAL MESSAGE  45,
                              POSSIBLE ERROR IN DMAP INSTRUCTION DSMG2      INSTRUCTION NO. 117
     DATA BLOCK NAMED PBS      ALREADY APPEARED AS OUTPUT

 *** USER POTENTIALLY FATAL MESSAGE  45,
                              POSSIBLE ERROR IN DMAP INSTRUCTION DSMG2      INSTRUCTION NO. 117
     DATA BLOCK NAMED YBS      ALREADY APPEARED AS OUTPUT

 *** USER POTENTIALLY FATAL MESSAGE  45,
                              POSSIBLE ERROR IN DMAP INSTRUCTION DSMG2      INSTRUCTION NO. 117
     DATA BLOCK NAMED UBOOV    ALREADY APPEARED AS OUTPUT
1 FREE-FREE UNIT LENGTH PRESSURIZED CYLINDER, QUARTER MODEL             / 95 X86_64 Windows_NT NASTRAN     / DEC 27, 16 / PAGE    14
      NASTRAN TEST PROBLEM NO. T13-02-2A                                                                                            
0     NORMAL MODES WITH DIFFERENTIAL STIFFNESS USING CPSE3/4 ELEMENTS                                                               
0*** USER INFORMATION MESSAGES FROM RESEQUENCING PROCESSOR - BANDIT     (CRI= 1,  MTH= 3,  MPC= 0,  DEP=-1,  PCH=-1)

                               BEFORE RESEQUENCING - - -
                                        BANDWIDTH            4
                                        PROFILE             59
                                        MAX WAVEFRONT        4
                                        AVG WAVEFRONT    3.278
                                        RMS WAVEFRONT    3.375
                                        RMS BANDWIDTH    3.375

                               AFTER RESEQUENCING BY GIBBS-POOLE-STOCKMEYER (GPS) ALGORITHM - - -
                                        BANDWIDTH            4
                                        PROFILE             59
                                        MAX WAVEFRONT        4
                                        AVG WAVEFRONT    3.278
                                        RMS WAVEFRONT    3.375
                                        RMS BANDWIDTH    3.375


                                                     *** BANDIT SUMMARY ***

                                                                        BEFORE     AFTER
                                        BANDWIDTH (B)                        4         4
                                        PROFILE (P)                         59        59
                                        MAXIMUM WAVEFRONT (C-MAX)            4         4
                                        AVERAGE WAVEFRONT (C-AVG)        3.278     3.278
                                        RMS WAVEFRONT (C-RMS)            3.375     3.375
                                        RMS BANDWITCH (B-RMS)            3.375     3.375
                                        NUMBER OF GRID POINTS (N)                     18
                                        NUMBER OF ELEMENTS (NON-RIGID)                20
                                        NUMBER OF RIGID ELEMENTS PROCESSED*            0
                                        NUMBER OF MPC  EQUATIONS PROCESSED*            0
                                        NUMBER OF COMPONENTS                           1
                                        MAXIMUM NODAL DEGREE                           5
                                        MINIMUM NODAL DEGREE                           3
                                        NUMBER OF UNIQUE EDGES                        41
                                        MATRIX DENSITY, PERCENT                   30.864
                                        NUMBER OF POINTS OF ZERO DEGREE                0
                                        BANDIT OPEN CORE                         1998969
                                        CRITERION*                         RMS WAVEFRONT
                                        METHOD USED*                                 GPS

                               (* THESE DEFAULT OPTIONS CAN BE OVERRIDDEN BY THE NASTRAN CARD)


                               BANDIT FINDS GRID POINT RE-SEQUENCING NOT NECESSARY
0         **NO ERRORS FOUND - EXECUTE NASTRAN PROGRAM**
0*** USER INFORMATION MESSAGE 3113,
     EMG MODULE PROCESSING DOUBLE PRECISION PSE3     ELEMENTS (ELEMENT TYPE  85) STARTING WITH ID       10
     (STEPPING THRU ONLY. NO REAL COMPUTATION HERE FOR THIS DIFFERENTIAL STIFFNESS ELEMENT)
     ELEMENT       10 IS BEING PROCESSED
     ELEMENT       11 IS BEING PROCESSED
     ELEMENT       12 IS BEING PROCESSED
     ELEMENT       13 IS BEING PROCESSED
     ELEMENT       15 IS BEING PROCESSED
     ELEMENT       16 IS BEING PROCESSED
     ELEMENT       17 IS BEING PROCESSED
     ELEMENT       18 IS BEING PROCESSED
0*** USER INFORMATION MESSAGE 3113,
     EMG MODULE PROCESSING DOUBLE PRECISION PSE4     ELEMENTS (ELEMENT TYPE  86) STARTING WITH ID       20
     (STEPPING THRU ONLY. NO REAL COMPUTATION HERE FOR THIS DIFFERENTIAL STIFFNESS ELEMENT)
     ELEMENT       20 IS BEING PROCESSED
     ELEMENT       21 IS BEING PROCESSED
     ELEMENT       22 IS BEING PROCESSED
     ELEMENT       23 IS BEING PROCESSED
0*** USER INFORMATION MESSAGE 3113,
     EMG MODULE PROCESSING DOUBLE PRECISION QUAD2    ELEMENTS (ELEMENT TYPE  18) STARTING WITH ID        1
     ELEMENT        1 IS BEING PROCESSED
0*** SYSTEM INFORMATION MESSAGE 3107
     EMGOLD CALLED BY EMGPRO TO PROCESS QUAD2    ELEMENTS.
     ELEMENT        2 IS BEING PROCESSED
     ELEMENT        3 IS BEING PROCESSED
     ELEMENT        4 IS BEING PROCESSED
     ELEMENT        5 IS BEING PROCESSED
     ELEMENT        6 IS BEING PROCESSED
     ELEMENT        7 IS BEING PROCESSED
     ELEMENT        8 IS BEING PROCESSED



 *** EMG ELEMENT PROCESSING TIME =         0 SECONDS
0*** USER INFORMATION MESSAGE 3035
     FOR SUBCASE NUMBER     1, EPSILON SUB E =  -6.2465487E-18
1 FREE-FREE UNIT LENGTH PRESSURIZED CYLINDER, QUARTER MODEL             / 95 X86_64 Windows_NT NASTRAN     / DEC 27, 16 / PAGE    15
      NASTRAN TEST PROBLEM NO. T13-02-2A                                                                                            
0     STATIC SOLUTION                                                                                        SUBCASE  1             
 
                                             D I S P L A C E M E N T   V E C T O R
 
      POINT ID.   TYPE          T1             T2             T3             R1             R2             R3
             1      G      2.215900E-02   0.0            0.0            0.0            0.0            0.0                           
             2      G      2.215900E-02   0.0            0.0            0.0            0.0            0.0                           
             3      G      2.175188E-02   4.231207E-03   0.0            0.0            0.0           -6.098800E-07                  
             4      G      2.175188E-02   4.231207E-03   0.0            0.0            0.0           -6.098800E-07                  
             5      G      2.054565E-02   8.307217E-03   0.0            0.0            0.0           -1.825491E-06                  
             6      G      2.054565E-02   8.307217E-03   0.0            0.0            0.0           -1.825491E-06                  
             7      G      1.858495E-02   1.207876E-02   0.0            0.0            0.0           -2.861572E-06                  
             8      G      1.858495E-02   1.207876E-02   0.0            0.0            0.0           -2.861572E-06                  
             9      G      1.567250E-02   1.568025E-02   0.0            0.0            0.0           -3.047444E-06                  
            10      G      1.567250E-02   1.568025E-02   0.0            0.0            0.0           -3.047444E-06                  
            11      G      1.239438E-02   1.838632E-02   0.0            0.0            0.0           -3.040590E-06                  
            12      G      1.239438E-02   1.838632E-02   0.0            0.0            0.0           -3.040590E-06                  
            13      G      8.659961E-03   2.041683E-02   0.0            0.0            0.0           -2.035989E-06                  
            14      G      8.659961E-03   2.041683E-02   0.0            0.0            0.0           -2.035989E-06                  
            15      G      4.606336E-03   2.169628E-02   0.0            0.0            0.0           -7.904785E-07                  
            16      G      4.606336E-03   2.169628E-02   0.0            0.0            0.0           -7.904785E-07                  
            17      G      0.0            2.218085E-02   0.0            0.0            0.0            0.0                           
            18      G      0.0            2.218085E-02   0.0            0.0            0.0            0.0                           
1 FREE-FREE UNIT LENGTH PRESSURIZED CYLINDER, QUARTER MODEL             / 95 X86_64 Windows_NT NASTRAN     / DEC 27, 16 / PAGE    16
      NASTRAN TEST PROBLEM NO. T13-02-2A                                                                                            
0     STATIC SOLUTION                                                                                        SUBCASE  1             
 
                                                     L O A D   V E C T O R
 
      POINT ID.   TYPE          T1             T2             T3             R1             R2             R3
             1      G      2.385112E+02   2.296603E+01   0.0            0.0            0.0            0.0                           
             2      G      2.385112E+02   2.296603E+01   0.0            0.0            0.0            0.0                           
             3      G      4.682582E+02   9.102011E+01   0.0            0.0            0.0            0.0                           
             4      G      4.682582E+02   9.102011E+01   0.0            0.0            0.0            0.0                           
             5      G      4.422876E+02   1.786958E+02   0.0            0.0            0.0            0.0                           
             6      G      4.422876E+02   1.786958E+02   0.0            0.0            0.0            0.0                           
             7      G      4.156252E+02   2.750964E+02   0.0            0.0            0.0            0.0                           
             8      G      4.156252E+02   2.750964E+02   0.0            0.0            0.0            0.0                           
             9      G      3.554982E+02   3.493470E+02   0.0            0.0            0.0            0.0                           
            10      G      3.554982E+02   3.493470E+02   0.0            0.0            0.0            0.0                           
            11      G      2.667475E+02   3.954695E+02   0.0            0.0            0.0            0.0                           
            12      G      2.667475E+02   3.954695E+02   0.0            0.0            0.0            0.0                           
            13      G      1.863875E+02   4.391016E+02   0.0            0.0            0.0            0.0                           
            14      G      1.863875E+02   4.391016E+02   0.0            0.0            0.0            0.0                           
            15      G      9.936905E+01   4.884141E+02   0.0            0.0            0.0            0.0                           
            16      G      9.936905E+01   4.884141E+02   0.0            0.0            0.0            0.0                           
            17      G      2.731550E+01   2.598896E+02   0.0            0.0            0.0            0.0                           
            18      G      2.731550E+01   2.598896E+02   0.0            0.0            0.0            0.0                           
0*** DS1 MODULE PROCESSING QUAD2    ELEMENTS (ELEM.TYPE  18)
0*** DS1 MODULE PROCESSING PSE3     ELEMENTS (ELEM.TYPE  85)
0*** DS1 MODULE PROCESSING PSE4     ELEMENTS (ELEM.TYPE  86)
1 FREE-FREE UNIT LENGTH PRESSURIZED CYLINDER, QUARTER MODEL             / 95 X86_64 Windows_NT NASTRAN     / DEC 27, 16 / PAGE    17
      NASTRAN TEST PROBLEM NO. T13-02-2A                                                                                            
0     NORMAL MODES WITH DIFFERENTIAL STIFFNESS USING CPSE3/4 ELEMENTS                                                               
0                                                                                                                                   
                                 C O N T E N T S   O F   P A R A M E T E R   T A B L E                                              
                                                                                                                                    
                    DET                 3.675462E+03
1 FREE-FREE UNIT LENGTH PRESSURIZED CYLINDER, QUARTER MODEL             / 95 X86_64 Windows_NT NASTRAN     / DEC 27, 16 / PAGE    18
      NASTRAN TEST PROBLEM NO. T13-02-2A                                                                                            
0     NORMAL MODES WITH DIFFERENTIAL STIFFNESS USING CPSE3/4 ELEMENTS                                                               
0                                                                                                                                   
                                 C O N T E N T S   O F   P A R A M E T E R   T A B L E                                              
                                                                                                                                    
                    POWER                    211
1 FREE-FREE UNIT LENGTH PRESSURIZED CYLINDER, QUARTER MODEL             / 95 X86_64 Windows_NT NASTRAN     / DEC 27, 16 / PAGE    19
      NASTRAN TEST PROBLEM NO. T13-02-2A                                                                                            

      NORMAL MODES WITH DIFFERENTIAL STIFFNESS USING CPSE3/4 ELEMENTS                                                               




0*** USER INFORMATION MESSAGE 3035
     FOR SUBCASE NUMBER     1, EPSILON SUB E =   7.1336575E-16
1 FREE-FREE UNIT LENGTH PRESSURIZED CYLINDER, QUARTER MODEL             / 95 X86_64 Windows_NT NASTRAN     / DEC 27, 16 / PAGE    20
      NASTRAN TEST PROBLEM NO. T13-02-2A                                                                                            
0     SECOND ORDER STATICS SOLUTION                                                                          SUBCASE  2             
 
                                             D I S P L A C E M E N T   V E C T O R
 
      POINT ID.   TYPE          T1             T2             T3             R1             R2             R3
             1      G      2.227925E-02   0.0            0.0            0.0            0.0            0.0                           
             2      G      2.225731E-02   0.0            0.0            0.0            0.0            0.0                           
             3      G      2.186035E-02   4.249918E-03   0.0            0.0            0.0            1.413663E-05                  
             4      G      2.185752E-02   4.250106E-03   0.0            0.0            0.0           -1.355823E-05                  
             5      G      2.064549E-02   8.343399E-03   0.0            0.0            0.0           -1.469088E-06                  
             6      G      2.064638E-02   8.344123E-03   0.0            0.0            0.0            2.188472E-06                  
             7      G      1.867403E-02   1.213061E-02   0.0            0.0            0.0            6.234043E-06                  
             8      G      1.867431E-02   1.213117E-02   0.0            0.0            0.0           -5.705993E-06                  
             9      G      1.574198E-02   1.574224E-02   0.0            0.0            0.0            1.029727E-06                  
            10      G      1.575027E-02   1.575036E-02   0.0            0.0            0.0           -6.441549E-07                  
            11      G      1.245084E-02   1.846158E-02   0.0            0.0            0.0           -7.741347E-06                  
            12      G      1.245209E-02   1.846255E-02   0.0            0.0            0.0            7.877877E-06                  
            13      G      8.699302E-03   2.049992E-02   0.0            0.0            0.0            6.440818E-07                  
            14      G      8.698956E-03   2.049857E-02   0.0            0.0            0.0            5.769447E-08                  
            15      G      4.626940E-03   2.178285E-02   0.0            0.0            0.0            1.319277E-06                  
            16      G      4.626904E-03   2.178259E-02   0.0            0.0            0.0           -3.990703E-07                  
            17      G      0.0            2.226870E-02   0.0            0.0            0.0            0.0                           
            18      G      0.0            2.226885E-02   0.0            0.0            0.0            0.0                           
                        0 ROOTS BELOW   9.318948E+01
0*** USER WARNING MESSAGE 2399
     ONLY THE FIRST   13 EIGENSOLUTIONS CLOSEST TO THE SHIFT POINT (F1 OR ZERO) PASS THE FEER ACCURACY TEST FOR EIGENVECTORS.
1 FREE-FREE UNIT LENGTH PRESSURIZED CYLINDER, QUARTER MODEL             / 95 X86_64 Windows_NT NASTRAN     / DEC 27, 16 / PAGE    21
      NASTRAN TEST PROBLEM NO. T13-02-2A                                                                                            

      NORMAL MODES WITH DIFFERENTIAL STIFFNESS USING CPSE3/4 ELEMENTS                                                               




0*** USER INFORMATION MESSAGE 2392
       20 MORE ACCURATE EIGENSOLUTIONS THAN THE   10 REQUESTED HAVE BEEN FOUND.
     USE DIAG 16 TO DETERMINE ERROR BOUNDS
1 FREE-FREE UNIT LENGTH PRESSURIZED CYLINDER, QUARTER MODEL             / 95 X86_64 Windows_NT NASTRAN     / DEC 27, 16 / PAGE    22
      NASTRAN TEST PROBLEM NO. T13-02-2A                                                                                            
0     NORMAL MODES WITH DIFFERENTIAL STIFFNESS USING CPSE3/4 ELEMENTS                                                               
 
 
                              E I G E N V A L U E   A N A L Y S I S   S U M M A R Y         (FEER METHOD)
0
0                                       NUMBER OF EIGENVALUES EXTRACTED  . . . . . .        30
0                                       NUMBER OF STARTING POINTS USED . . . . . . .         1
0                                       NUMBER OF STARTING POINT MOVES . . . . . . .         0
0                                       NUMBER OF TRIANGULAR DECOMPOSITIONS  . . . .         1
0                                       TOTAL NUMBER OF VECTOR ITERATIONS  . . . . .        29

0                                       REASON FOR TERMINATION . . . . . . . . . . .         0*

0                                       LARGEST OFF-DIAGONAL MODAL MASS TERM . . . .  0.00E+00
0                                                                              . . .         0
                                                  MODE PAIR . . . . . . . . . .
                                                                               . . .         0
0                                       NUMBER OF OFF-DIAGONAL MODAL MASS
                                             TERMS FAILING CRITERION . . . . . . . .         0

0                                       (* NORMAL TERMINATION              
                                         SEE NASTRAN U.M. VOL II, SECTION 2.3.3)
1 FREE-FREE UNIT LENGTH PRESSURIZED CYLINDER, QUARTER MODEL             / 95 X86_64 Windows_NT NASTRAN     / DEC 27, 16 / PAGE    23
      NASTRAN TEST PROBLEM NO. T13-02-2A                                                                                            
0     NORMAL MODES WITH DIFFERENTIAL STIFFNESS USING CPSE3/4 ELEMENTS                                                               
 
                                              R E A L   E I G E N V A L U E S

   MODE    EXTRACTION       EIGENVALUE            RADIAN              CYCLIC           GENERALIZED         GENERALIZED
    NO.       ORDER                              FREQUENCY           FREQUENCY            MASS              STIFFNESS

        1         1       -5.293470E-04        2.300754E-02        3.661764E-03        3.334377E+00       -1.765042E-03             
        2         2        1.148113E+03        3.388382E+01        5.392778E+00        4.198688E+00        4.820569E+03             
        3         3        7.363284E+03        8.580958E+01        1.365702E+01        2.088782E+00        1.538029E+04             
        4         4        2.031876E+04        1.425439E+02        2.268657E+01        1.163266E+00        2.363612E+04             
        5         5        4.391660E+04        2.095629E+02        3.335297E+01        5.851693E-01        2.569864E+04             
        6         6        8.470649E+04        2.910438E+02        4.632106E+01        3.365201E-01        2.850544E+04             
        7         7        1.521238E+05        3.900305E+02        6.207528E+01        2.027228E-01        3.083897E+04             
        8         8        2.647969E+05        5.145842E+02        8.189862E+01        1.238523E-01        3.279571E+04             
        9         9        4.059232E+05        6.371210E+02        1.014010E+02        9.731219E-02        3.950127E+04             
       10        10        4.656545E+05        6.823888E+02        1.086055E+02        7.505793E-02        3.495106E+04             
       11        11        4.880577E+05        6.986112E+02        1.111874E+02        7.236733E-02        3.531943E+04             
       12        12        5.175546E+05        7.194127E+02        1.144981E+02        2.079408E+00        1.076207E+06             
       13        13        5.264872E+05        7.255944E+02        1.154819E+02        6.238412E-02        3.284444E+04             
       14        14        5.737293E+05        7.574492E+02        1.205518E+02        1.882980E-01        1.080321E+05             
       15        15        6.449959E+05        8.031163E+02        1.278199E+02        6.497480E-02        4.190848E+04             
       16        16        6.818846E+05        8.257631E+02        1.314243E+02        3.505703E-01        2.390485E+05             
       17        17        7.739551E+05        8.797472E+02        1.400161E+02        7.938562E-02        6.144091E+04             
       18        18        8.581119E+05        9.263433E+02        1.474321E+02        5.913965E-02        5.074844E+04             
       19        19        1.122226E+06        1.059352E+03        1.686011E+02        3.491664E-02        3.918436E+04             
       20        20        1.319601E+06        1.148739E+03        1.828275E+02        1.660402E-02        2.191069E+04             
       21        21        1.443134E+06        1.201305E+03        1.911936E+02        8.716220E-03        1.257868E+04             
       22        22        1.752232E+06        1.323719E+03        2.106764E+02        2.802468E-02        4.910573E+04             
       23        23        1.958167E+06        1.399345E+03        2.227127E+02        2.582118E-02        5.056218E+04             
       24        24        2.176176E+06        1.475187E+03        2.347833E+02        1.636617E-02        3.561567E+04             
       25        25        3.379296E+06        1.838286E+03        2.925723E+02        3.944531E-02        1.332974E+05             
       26        26        3.780728E+06        1.944409E+03        3.094624E+02        2.589798E-02        9.791323E+04             
       27        27        5.718344E+06        2.391306E+03        3.805881E+02        1.231468E-02        7.041956E+04             
       28        28        8.170006E+06        2.858322E+03        4.549161E+02        1.483917E-02        1.212361E+05             
       29        29        1.097182E+07        3.312374E+03        5.271807E+02        2.078516E-01        2.280512E+06             
       30        30        1.407611E+07        3.751814E+03        5.971198E+02        2.560952E-01        3.604824E+06             
1 FREE-FREE UNIT LENGTH PRESSURIZED CYLINDER, QUARTER MODEL             / 95 X86_64 Windows_NT NASTRAN     / DEC 27, 16 / PAGE    24
      NASTRAN TEST PROBLEM NO. T13-02-2A                                                                                            
0     NORMAL MODES WITH DIFFERENTIAL STIFFNESS                                                               SUBCASE  3             
      EIGENVALUE = -0.529347E-03    (CYCLIC FREQUENCY =  3.661764E-03 HZ)

                                         R E A L   E I G E N V E C T O R   N O .          1
 
      POINT ID.   TYPE          T1             T2             T3             R1             R2             R3
             1      G      0.0            1.000000E+00   0.0            0.0            0.0            2.000667E-01                  
             2      G      0.0            9.999650E-01   0.0            0.0            0.0            1.999269E-01                  
             3      G     -1.908409E-01   9.816074E-01   0.0            0.0            0.0            2.000406E-01                  
             4      G     -1.907709E-01   9.816124E-01   0.0            0.0            0.0            1.999528E-01                  
             5      G     -3.746442E-01   9.271506E-01   0.0            0.0            0.0            2.000038E-01                  
             6      G     -3.745566E-01   9.271845E-01   0.0            0.0            0.0            1.999894E-01                  
             7      G     -5.446662E-01   8.386309E-01   0.0            0.0            0.0            1.999732E-01                  
             8      G     -5.445940E-01   8.386805E-01   0.0            0.0            0.0            2.000203E-01                  
             9      G     -7.071063E-01   7.070699E-01   0.0            0.0            0.0            1.999639E-01                  
            10      G     -7.070839E-01   7.071182E-01   0.0            0.0            0.0            2.000293E-01                  
            11      G     -8.290258E-01   5.591756E-01   0.0            0.0            0.0            1.999731E-01                  
            12      G     -8.290217E-01   5.591900E-01   0.0            0.0            0.0            2.000197E-01                  
            13      G     -9.204890E-01   3.907233E-01   0.0            0.0            0.0            1.999921E-01                  
            14      G     -9.204895E-01   3.907250E-01   0.0            0.0            0.0            2.000006E-01                  
            15      G     -9.781309E-01   2.079078E-01   0.0            0.0            0.0            1.999963E-01                  
            16      G     -9.781313E-01   2.079081E-01   0.0            0.0            0.0            1.999965E-01                  
            17      G     -9.999830E-01   0.0            0.0            0.0            0.0            1.999961E-01                  
            18      G     -9.999831E-01   0.0            0.0            0.0            0.0            1.999967E-01                  
1 FREE-FREE UNIT LENGTH PRESSURIZED CYLINDER, QUARTER MODEL             / 95 X86_64 Windows_NT NASTRAN     / DEC 27, 16 / PAGE    25
      NASTRAN TEST PROBLEM NO. T13-02-2A                                                                                            
0     NORMAL MODES WITH DIFFERENTIAL STIFFNESS                                                               SUBCASE  3             
      EIGENVALUE =  0.114811E+04    (CYCLIC FREQUENCY =  5.392778E+00 HZ)

                                         R E A L   E I G E N V E C T O R   N O .          2
 
      POINT ID.   TYPE          T1             T2             T3             R1             R2             R3
             1      G      0.0            7.022527E-01   0.0            0.0            0.0           -4.264881E-01                  
             2      G      0.0            7.023212E-01   0.0            0.0            0.0           -4.262323E-01                  
             3      G      3.958028E-01   7.402491E-01   0.0            0.0            0.0           -3.953770E-01                  
             4      G      3.956809E-01   7.402344E-01   0.0            0.0            0.0           -3.952509E-01                  
             5      G      7.215863E-01   8.363265E-01   0.0            0.0            0.0           -3.066410E-01                  
             6      G      7.214682E-01   8.362672E-01   0.0            0.0            0.0           -3.066946E-01                  
             7      G      9.277601E-01   9.429422E-01   0.0            0.0            0.0           -1.729430E-01                  
             8      G      9.276996E-01   9.428833E-01   0.0            0.0            0.0           -1.730459E-01                  
             9      G      9.995540E-01   1.000000E+00   0.0            0.0            0.0           -5.738330E-04                  
            10      G      9.995390E-01   9.999688E-01   0.0            0.0            0.0           -6.336616E-04                  
            11      G      9.511513E-01   9.400648E-01   0.0            0.0            0.0            1.596614E-01                  
            12      G      9.511493E-01   9.400570E-01   0.0            0.0            0.0            1.596337E-01                  
            13      G      8.464879E-01   7.459146E-01   0.0            0.0            0.0            2.962070E-01                  
            14      G      8.464882E-01   7.459136E-01   0.0            0.0            0.0            2.962032E-01                  
            15      G      7.471027E-01   4.292031E-01   0.0            0.0            0.0            3.899603E-01                  
            16      G      7.471028E-01   4.292027E-01   0.0            0.0            0.0            3.899601E-01                  
            17      G      7.021719E-01   0.0            0.0            0.0            0.0            4.268138E-01                  
            18      G      7.021720E-01   0.0            0.0            0.0            0.0            4.268131E-01                  
1 FREE-FREE UNIT LENGTH PRESSURIZED CYLINDER, QUARTER MODEL             / 95 X86_64 Windows_NT NASTRAN     / DEC 27, 16 / PAGE    26
      NASTRAN TEST PROBLEM NO. T13-02-2A                                                                                            
0     NORMAL MODES WITH DIFFERENTIAL STIFFNESS                                                               SUBCASE  3             
      EIGENVALUE =  0.736328E+04    (CYCLIC FREQUENCY =  1.365702E+01 HZ)

                                         R E A L   E I G E N V E C T O R   N O .          3
 
      POINT ID.   TYPE          T1             T2             T3             R1             R2             R3
             1      G      0.0            2.592006E-01   0.0            0.0            0.0           -8.251778E-01                  
             2      G      0.0            2.593047E-01   0.0            0.0            0.0           -8.248795E-01                  
             3      G      7.028197E-01   3.265361E-01   0.0            0.0            0.0           -5.935042E-01                  
             4      G      7.027041E-01   3.264912E-01   0.0            0.0            0.0           -5.934954E-01                  
             5      G      9.999775E-01   4.135539E-01   0.0            0.0            0.0           -2.857698E-02                  
             6      G      1.000000E+00   4.134964E-01   0.0            0.0            0.0           -2.891206E-02                  
             7      G      7.688274E-01   2.920586E-01   0.0            0.0            0.0            5.538953E-01                  
             8      G      7.689914E-01   2.921148E-01   0.0            0.0            0.0            5.537456E-01                  
             9      G      1.838008E-01  -1.823897E-01   0.0            0.0            0.0            8.261287E-01                  
            10      G      1.838717E-01  -1.822406E-01   0.0            0.0            0.0            8.262684E-01                  
            11      G     -2.657393E-01  -7.270607E-01   0.0            0.0            0.0            5.933034E-01                  
            12      G     -2.657235E-01  -7.270131E-01   0.0            0.0            0.0            5.934606E-01                  
            13      G     -4.143413E-01  -9.986625E-01   0.0            0.0            0.0            2.872058E-02                  
            14      G     -4.143428E-01  -9.986581E-01   0.0            0.0            0.0            2.875068E-02                  
            15      G     -3.368415E-01  -7.494626E-01   0.0            0.0            0.0           -5.536869E-01                  
            16      G     -3.368425E-01  -7.494622E-01   0.0            0.0            0.0           -5.536879E-01                  
            17      G     -2.585606E-01   0.0            0.0            0.0            0.0           -8.273371E-01                  
            18      G     -2.585612E-01   0.0            0.0            0.0            0.0           -8.273359E-01                  
1 FREE-FREE UNIT LENGTH PRESSURIZED CYLINDER, QUARTER MODEL             / 95 X86_64 Windows_NT NASTRAN     / DEC 27, 16 / PAGE    27
      NASTRAN TEST PROBLEM NO. T13-02-2A                                                                                            
0     NORMAL MODES WITH DIFFERENTIAL STIFFNESS                                                               SUBCASE  3             
      EIGENVALUE =  0.203188E+05    (CYCLIC FREQUENCY =  2.268657E+01 HZ)

                                         R E A L   E I G E N V E C T O R   N O .          4
 
      POINT ID.   TYPE          T1             T2             T3             R1             R2             R3
             1      G      0.0            1.243893E-01   0.0            0.0            0.0           -9.924302E-01                  
             2      G      0.0            1.244775E-01   0.0            0.0            0.0           -9.923385E-01                  
             3      G      7.274162E-01   1.938724E-01   0.0            0.0            0.0           -4.027985E-01                  
             4      G      7.274177E-01   1.938059E-01   0.0            0.0            0.0           -4.029730E-01                  
             5      G      5.957063E-01   1.536468E-01   0.0            0.0            0.0            6.660169E-01                  
             6      G      5.958955E-01   1.536495E-01   0.0            0.0            0.0            6.656890E-01                  
             7      G     -1.528727E-01  -2.364795E-01   0.0            0.0            0.0            9.469201E-01                  
             8      G     -1.526571E-01  -2.363157E-01   0.0            0.0            0.0            9.469685E-01                  
             9      G     -5.806565E-01  -5.816520E-01   0.0            0.0            0.0            2.303070E-03                  
            10      G     -5.805820E-01  -5.815051E-01   0.0            0.0            0.0            2.535213E-03                  
            11      G     -2.796358E-01  -2.149846E-01   0.0            0.0            0.0           -9.074093E-01                  
            12      G     -2.796243E-01  -2.149456E-01   0.0            0.0            0.0           -9.072648E-01                  
            13      G      1.315227E-01   5.418631E-01   0.0            0.0            0.0           -7.373115E-01                  
            14      G      1.315209E-01   5.418665E-01   0.0            0.0            0.0           -7.372910E-01                  
            15      G      1.998304E-01   7.547559E-01   0.0            0.0            0.0            3.116229E-01                  
            16      G      1.998295E-01   7.547568E-01   0.0            0.0            0.0            3.116221E-01                  
            17      G      1.212635E-01   0.0            0.0            0.0            0.0            9.999976E-01                  
            18      G      1.212630E-01   0.0            0.0            0.0            0.0            1.000000E+00                  
1 FREE-FREE UNIT LENGTH PRESSURIZED CYLINDER, QUARTER MODEL             / 95 X86_64 Windows_NT NASTRAN     / DEC 27, 16 / PAGE    28
      NASTRAN TEST PROBLEM NO. T13-02-2A                                                                                            
0     NORMAL MODES WITH DIFFERENTIAL STIFFNESS                                                               SUBCASE  3             
      EIGENVALUE =  0.439166E+05    (CYCLIC FREQUENCY =  3.335297E+01 HZ)

                                         R E A L   E I G E N V E C T O R   N O .          5
 
      POINT ID.   TYPE          T1             T2             T3             R1             R2             R3
             1      G      0.0           -6.050985E-02   0.0            0.0            0.0            9.832539E-01                  
             2      G      0.0           -6.056798E-02   0.0            0.0            0.0            9.833542E-01                  
             3      G     -5.745658E-01  -1.151010E-01   0.0            0.0            0.0            3.250912E-02                  
             4      G     -5.746443E-01  -1.150370E-01   0.0            0.0            0.0            3.267936E-02                  
             5      G     -5.778479E-02   3.893027E-02   0.0            0.0            0.0           -9.819034E-01                  
             6      G     -5.792473E-02   3.887762E-02   0.0            0.0            0.0           -9.819184E-01                  
             7      G      4.861737E-01   3.213957E-01   0.0            0.0            0.0           -9.555137E-02                  
             8      G      4.861907E-01   3.212996E-01   0.0            0.0            0.0           -9.581669E-02                  
             9      G      4.271409E-02  -3.888063E-02   0.0            0.0            0.0            9.917423E-01                  
            10      G      4.274699E-02  -3.880566E-02   0.0            0.0            0.0            9.916905E-01                  
            11      G     -3.278294E-01  -4.870205E-01   0.0            0.0            0.0            3.402241E-02                  
            12      G     -3.278151E-01  -4.869861E-01   0.0            0.0            0.0            3.412076E-02                  
            13      G     -7.111857E-02  -1.234450E-02   0.0            0.0            0.0           -9.836213E-01                  
            14      G     -7.111889E-02  -1.234187E-02   0.0            0.0            0.0           -9.835930E-01                  
            15      G      1.140703E-01   5.726753E-01   0.0            0.0            0.0           -9.460598E-02                  
            16      G      1.140696E-01   5.726743E-01   0.0            0.0            0.0           -9.460794E-02                  
            17      G      5.480492E-02   0.0            0.0            0.0            0.0            1.000000E+00                  
            18      G      5.480459E-02   0.0            0.0            0.0            0.0            9.999983E-01                  
1 FREE-FREE UNIT LENGTH PRESSURIZED CYLINDER, QUARTER MODEL             / 95 X86_64 Windows_NT NASTRAN     / DEC 27, 16 / PAGE    29
      NASTRAN TEST PROBLEM NO. T13-02-2A                                                                                            
0     NORMAL MODES WITH DIFFERENTIAL STIFFNESS                                                               SUBCASE  3             
      EIGENVALUE =  0.847065E+05    (CYCLIC FREQUENCY =  4.632106E+01 HZ)

                                         R E A L   E I G E N V E C T O R   N O .          6
 
      POINT ID.   TYPE          T1             T2             T3             R1             R2             R3
             1      G      0.0            2.920827E-02   0.0            0.0            0.0           -9.890158E-01                  
             2      G      0.0            2.924460E-02   0.0            0.0            0.0           -9.891880E-01                  
             3      G      4.166937E-01   6.844008E-02   0.0            0.0            0.0            3.401803E-01                  
[...]
             9      G     -2.045512E-02  -2.295119E-02   0.0            0.0            0.0            3.149854E-01                  
            10      G     -7.113095E-03  -6.493942E-03   0.0            0.0            0.0           -2.564446E-01                  
            11      G      2.013013E-03   5.061297E-03   0.0            0.0            0.0            6.252480E-01                  
            12      G      9.250858E-03   1.959049E-02   0.0            0.0            0.0           -4.414685E-01                  
            13      G      1.286029E-02   2.446575E-02   0.0            0.0            0.0            3.735104E-01                  
            14      G     -4.442500E-03  -1.365316E-02   0.0            0.0            0.0           -5.828657E-01                  
            15      G      2.434386E-03   7.254989E-03   0.0            0.0            0.0            2.381643E-02                  
            16      G     -6.261675E-03  -3.705771E-02   0.0            0.0            0.0           -5.285483E-02                  
            17      G     -3.695341E-03   0.0            0.0            0.0            0.0            2.599525E-03                  
            18      G     -2.916327E-03   0.0            0.0            0.0            0.0            2.057217E-01                  
1 FREE-FREE UNIT LENGTH PRESSURIZED CYLINDER, QUARTER MODEL             / 95 X86_64 Windows_NT NASTRAN     / DEC 27, 16 / PAGE    48
      NASTRAN TEST PROBLEM NO. T13-02-2A                                                                                            
0     NORMAL MODES WITH DIFFERENTIAL STIFFNESS                                                               SUBCASE  3             
      EIGENVALUE =  0.337930E+07    (CYCLIC FREQUENCY =  2.925723E+02 HZ)

                                         R E A L   E I G E N V E C T O R   N O .         25
 
      POINT ID.   TYPE          T1             T2             T3             R1             R2             R3
             1      G      0.0            4.904686E-02   0.0            0.0            0.0            1.000000E+00                  
             2      G      0.0            1.311862E-01   0.0            0.0            0.0           -5.615479E-01                  
             3      G      3.848192E-02   1.421676E-04   0.0            0.0            0.0            6.120043E-02                  
             4      G     -5.563671E-02   6.973445E-02   0.0            0.0            0.0            1.598872E-02                  
             5      G      1.121397E-02  -1.233673E-01   0.0            0.0            0.0            1.618309E-02                  
             6      G     -7.173574E-03  -3.915006E-03   0.0            0.0            0.0            8.749489E-02                  
             7      G      1.235862E-01  -9.347226E-02   0.0            0.0            0.0           -2.457850E-01                  
             8      G      3.992189E-02  -5.509975E-03   0.0            0.0            0.0           -5.037354E-02                  
             9      G      4.913888E-02  -6.311747E-02   0.0            0.0            0.0           -5.249948E-01                  
            10      G     -4.872215E-02   6.917636E-02   0.0            0.0            0.0           -2.075831E-01                  
            11      G     -3.563249E-02  -4.125503E-02   0.0            0.0            0.0            3.262763E-01                  
            12      G     -1.450527E-01   3.078424E-02   0.0            0.0            0.0            3.404968E-01                  
            13      G      1.513391E-03   1.626483E-02   0.0            0.0            0.0            4.180790E-01                  
            14      G     -1.249758E-01   1.004202E-01   0.0            0.0            0.0            6.178394E-01                  
            15      G      1.239289E-01  -1.664993E-02   0.0            0.0            0.0           -7.366384E-02                  
            16      G     -7.600731E-02   5.336130E-02   0.0            0.0            0.0           -3.263418E-01                  
            17      G      2.376317E-01   0.0            0.0            0.0            0.0           -3.305160E-01                  
            18      G     -1.209635E-03   0.0            0.0            0.0            0.0           -6.193894E-01                  
1 FREE-FREE UNIT LENGTH PRESSURIZED CYLINDER, QUARTER MODEL             / 95 X86_64 Windows_NT NASTRAN     / DEC 27, 16 / PAGE    49
      NASTRAN TEST PROBLEM NO. T13-02-2A                                                                                            
0     NORMAL MODES WITH DIFFERENTIAL STIFFNESS                                                               SUBCASE  3             
      EIGENVALUE =  0.378073E+07    (CYCLIC FREQUENCY =  3.094624E+02 HZ)

                                         R E A L   E I G E N V E C T O R   N O .         26
 
      POINT ID.   TYPE          T1             T2             T3             R1             R2             R3
             1      G      0.0            1.438172E-01   0.0            0.0            0.0            1.000000E+00                  
             2      G      0.0           -1.383269E-01   0.0            0.0            0.0           -5.805678E-01                  
             3      G      2.514647E-02   1.396348E-01   0.0            0.0            0.0            7.749097E-02                  
             4      G      1.801886E-02  -1.354128E-01   0.0            0.0            0.0           -1.603502E-01                  
             5      G     -7.610770E-02   7.623272E-02   0.0            0.0            0.0            7.706896E-02                  
             6      G      3.935407E-02  -9.862433E-02   0.0            0.0            0.0           -8.865685E-02                  
             7      G     -3.045653E-02   7.950135E-02   0.0            0.0            0.0            6.931794E-02                  
             8      G      5.587144E-02  -5.676527E-02   0.0            0.0            0.0            6.977554E-02                  
             9      G     -4.061791E-02   1.006380E-02   0.0            0.0            0.0           -1.716514E-01                  
            10      G      3.169245E-02   5.030567E-04   0.0            0.0            0.0           -3.992331E-02                  
            11      G     -2.579431E-02  -2.057292E-02   0.0            0.0            0.0            1.771606E-01                  
            12      G      2.145567E-02  -3.105564E-02   0.0            0.0            0.0            5.384135E-02                  
            13      G      6.877264E-04   1.867327E-04   0.0            0.0            0.0            8.215115E-02                  
            14      G     -2.157754E-03   4.727183E-02   0.0            0.0            0.0            1.712445E-01                  
            15      G      4.738259E-02  -3.067880E-02   0.0            0.0            0.0            7.975983E-02                  
            16      G     -6.803241E-02   2.954713E-02   0.0            0.0            0.0           -1.918195E-01                  
            17      G      1.109315E-01   0.0            0.0            0.0            0.0            1.158333E-01                  
            18      G     -6.252281E-02   0.0            0.0            0.0            0.0           -1.710515E-01                  
1 FREE-FREE UNIT LENGTH PRESSURIZED CYLINDER, QUARTER MODEL             / 95 X86_64 Windows_NT NASTRAN     / DEC 27, 16 / PAGE    50
      NASTRAN TEST PROBLEM NO. T13-02-2A                                                                                            
0     NORMAL MODES WITH DIFFERENTIAL STIFFNESS                                                               SUBCASE  3             
      EIGENVALUE =  0.571834E+07    (CYCLIC FREQUENCY =  3.805881E+02 HZ)

                                         R E A L   E I G E N V E C T O R   N O .         27
 
      POINT ID.   TYPE          T1             T2             T3             R1             R2             R3
             1      G      0.0           -6.555416E-02   0.0            0.0            0.0            7.080632E-01                  
             2      G      0.0           -3.483015E-02   0.0            0.0            0.0            1.000000E+00                  
             3      G      8.195019E-02   9.332858E-04   0.0            0.0            0.0            2.736642E-01                  
             4      G      8.710063E-02   2.205751E-02   0.0            0.0            0.0            2.799255E-01                  
             5      G      3.539780E-02   7.428081E-02   0.0            0.0            0.0           -7.412061E-01                  
             6      G      3.176088E-02   5.436600E-02   0.0            0.0            0.0           -7.399774E-01                  
             7      G     -6.727316E-02  -1.217390E-02   0.0            0.0            0.0           -7.282310E-01                  
             8      G     -4.809497E-02  -3.175559E-02   0.0            0.0            0.0           -7.617957E-01                  
             9      G     -3.098869E-02  -7.660427E-02   0.0            0.0            0.0            1.431498E-01                  
            10      G     -8.031634E-03  -9.711184E-02   0.0            0.0            0.0            8.537429E-02                  
            11      G      5.407596E-03  -1.405720E-02   0.0            0.0            0.0            7.447641E-01                  
            12      G     -1.065603E-02   7.473587E-03   0.0            0.0            0.0            7.804127E-01                  
            13      G      1.628483E-02   5.688581E-02   0.0            0.0            0.0            4.011764E-01                  
            14      G     -2.372973E-02   7.074667E-02   0.0            0.0            0.0            4.036724E-01                  
            15      G      1.670857E-02   5.131458E-02   0.0            0.0            0.0           -4.889504E-01                  
            16      G      4.715194E-03   4.694118E-02   0.0            0.0            0.0           -4.120600E-01                  
            17      G      1.337977E-02   0.0            0.0            0.0            0.0           -8.538975E-01                  
            18      G      2.366182E-02   0.0            0.0            0.0            0.0           -7.810041E-01                  
1 FREE-FREE UNIT LENGTH PRESSURIZED CYLINDER, QUARTER MODEL             / 95 X86_64 Windows_NT NASTRAN     / DEC 27, 16 / PAGE    51
      NASTRAN TEST PROBLEM NO. T13-02-2A                                                                                            
0     NORMAL MODES WITH DIFFERENTIAL STIFFNESS                                                               SUBCASE  3             
      EIGENVALUE =  0.817001E+07    (CYCLIC FREQUENCY =  4.549161E+02 HZ)

                                         R E A L   E I G E N V E C T O R   N O .         28
 
      POINT ID.   TYPE          T1             T2             T3             R1             R2             R3
             1      G      0.0           -1.240588E-01   0.0            0.0            0.0            9.634862E-01                  
             2      G      0.0           -2.277333E-02   0.0            0.0            0.0            7.659665E-01                  
             3      G      6.283390E-02   3.184972E-02   0.0            0.0            0.0            5.258087E-01                  
             4      G      3.127934E-02   4.486296E-02   0.0            0.0            0.0            5.450769E-01                  
             5      G      4.451800E-03   9.419475E-02   0.0            0.0            0.0           -7.713571E-02                  
             6      G      3.079567E-02   2.214470E-02   0.0            0.0            0.0           -1.288099E-01                  
             7      G      3.622530E-02  -1.367164E-02   0.0            0.0            0.0           -6.397517E-01                  
             8      G      7.917428E-02  -6.966469E-02   0.0            0.0            0.0           -6.543938E-01                  
             9      G      1.551330E-02  -8.755368E-03   0.0            0.0            0.0           -8.792542E-01                  
            10      G     -3.946207E-02   6.296682E-02   0.0            0.0            0.0           -7.983138E-01                  
            11      G     -3.029548E-02  -3.427877E-02   0.0            0.0            0.0           -5.277839E-01                  
            12      G     -6.284350E-02  -2.550135E-02   0.0            0.0            0.0           -5.327125E-01                  
            13      G     -1.738162E-02  -5.136553E-02   0.0            0.0            0.0            1.991126E-01                  
            14      G      2.378358E-02  -7.305843E-02   0.0            0.0            0.0            1.942263E-01                  
            15      G     -1.298033E-02  -2.320699E-02   0.0            0.0            0.0            8.253683E-01                  
            16      G      1.216887E-02  -2.398374E-02   0.0            0.0            0.0            7.461016E-01                  
            17      G     -1.646591E-02   0.0            0.0            0.0            0.0            1.000000E+00                  
            18      G     -2.659759E-02   0.0            0.0            0.0            0.0            9.338989E-01                  
1 FREE-FREE UNIT LENGTH PRESSURIZED CYLINDER, QUARTER MODEL             / 95 X86_64 Windows_NT NASTRAN     / DEC 27, 16 / PAGE    52
      NASTRAN TEST PROBLEM NO. T13-02-2A                                                                                            
0     NORMAL MODES WITH DIFFERENTIAL STIFFNESS                                                               SUBCASE  3             
      EIGENVALUE =  0.109718E+08    (CYCLIC FREQUENCY =  5.271807E+02 HZ)

                                         R E A L   E I G E N V E C T O R   N O .         29
 
      POINT ID.   TYPE          T1             T2             T3             R1             R2             R3
             1      G      0.0            6.306862E-01   0.0            0.0            0.0            9.074763E-01                  
             2      G      0.0            1.500046E-01   0.0            0.0            0.0           -1.420332E-01                  
             3      G      7.494741E-02  -4.255545E-01   0.0            0.0            0.0           -1.311730E-01                  
             4      G      6.124312E-02  -2.898491E-01   0.0            0.0            0.0           -2.025053E-02                  
             5      G     -2.116180E-02   3.676013E-02   0.0            0.0            0.0            3.335792E-01                  
             6      G     -2.214273E-01   4.726125E-01   0.0            0.0            0.0            5.477359E-01                  
             7      G     -4.528702E-02   1.035470E-01   0.0            0.0            0.0            5.299208E-01                  
             8      G      1.911003E-01  -3.593394E-01   0.0            0.0            0.0            3.009408E-01                  
             9      G     -3.606525E-02  -2.550598E-03   0.0            0.0            0.0            4.412903E-01                  
            10      G     -2.264529E-02   6.098496E-02   0.0            0.0            0.0            5.558439E-01                  
            11      G      6.642869E-02  -7.025601E-02   0.0            0.0            0.0            6.819186E-01                  
            12      G     -9.737374E-02   3.810506E-02   0.0            0.0            0.0            7.162650E-01                  
            13      G     -3.203721E-02   1.959371E-02   0.0            0.0            0.0            8.135297E-01                  
            14      G     -2.617798E-02   2.559473E-03   0.0            0.0            0.0            8.732268E-01                  
            15      G      4.556055E-02  -4.038431E-03   0.0            0.0            0.0            8.755915E-01                  
            16      G      1.144763E-01  -2.319187E-02   0.0            0.0            0.0            6.187913E-01                  
            17      G     -1.407236E-01   0.0            0.0            0.0            0.0            1.000000E+00                  
            18      G     -5.802940E-02   0.0            0.0            0.0            0.0            7.277483E-01                  
1 FREE-FREE UNIT LENGTH PRESSURIZED CYLINDER, QUARTER MODEL             / 95 X86_64 Windows_NT NASTRAN     / DEC 27, 16 / PAGE    53
      NASTRAN TEST PROBLEM NO. T13-02-2A                                                                                            
0     NORMAL MODES WITH DIFFERENTIAL STIFFNESS                                                               SUBCASE  3             
      EIGENVALUE =  0.140761E+08    (CYCLIC FREQUENCY =  5.971198E+02 HZ)

                                         R E A L   E I G E N V E C T O R   N O .         30
 
      POINT ID.   TYPE          T1             T2             T3             R1             R2             R3
             1      G      0.0            6.165291E-01   0.0            0.0            0.0            6.196896E-01                  
             2      G      0.0           -6.060837E-01   0.0            0.0            0.0            6.974007E-01                  
             3      G      6.350118E-02  -5.218135E-01   0.0            0.0            0.0            5.027524E-01                  
             4      G     -7.426067E-02   5.191439E-01   0.0            0.0            0.0            1.000000E+00                  
             5      G     -7.740912E-02   3.239705E-01   0.0            0.0            0.0            7.424195E-01                  
             6      G      1.190609E-01  -3.010812E-01   0.0            0.0            0.0            4.450395E-01                  
             7      G      2.787451E-02  -1.012869E-01   0.0            0.0            0.0            3.910614E-01                  
             8      G     -1.823314E-02   7.760713E-02   0.0            0.0            0.0            4.444537E-01                  
             9      G      5.200272E-02  -4.583008E-02   0.0            0.0            0.0            5.746796E-01                  
            10      G     -1.235368E-01   7.961312E-02   0.0            0.0            0.0            5.946544E-01                  
            11      G     -6.951258E-02   6.206731E-02   0.0            0.0            0.0            5.530829E-01                  
            12      G      1.604146E-01  -1.001038E-01   0.0            0.0            0.0            4.700451E-01                  
            13      G      2.793422E-02  -1.494813E-02   0.0            0.0            0.0            4.960888E-01                  
            14      G     -5.897828E-02   3.197725E-02   0.0            0.0            0.0            4.851467E-01                  
            15      G     -3.634840E-02   1.981002E-02   0.0            0.0            0.0            3.274573E-01                  
            16      G     -1.039604E-02   1.539378E-02   0.0            0.0            0.0            5.089120E-01                  
            17      G      1.076792E-01   0.0            0.0            0.0            0.0            1.346578E-01                  
            18      G     -2.968676E-02   0.0            0.0            0.0            0.0            4.079057E-01                  




                                        * * * END OF JOB * * *
1
 JOB TITLE =  FREE-FREE UNIT LENGTH PRESSURIZED CYLINDER, QUARTER MODEL          
 DATE: 12/27/16
 END TIME: 15:47:19
 TOTAL WALL CLOCK TIME      0 SEC.
 
