     NASTRAN  SYSTEM(93)=1                                                           






                                  ****
                                *      *
                               *        *
                               *  N A S T R A N
                               *        *
                                *      *
                                  ****


                           X86_64 COMPUTER SYSTEMS   
                              Windows_NT VERSION  

                          SYSTEM RELEASE -  1995 ED.

                                DISTRIBUTED BY

         COMPUTER SOFTWARE MANAGEMENT AND INFORMATION CENTER (COSMIC)
                 UNIVERSITY OF GEORGIA, ATHENS, GEORGIA 30602
                 PHONE: (706)542-3265      FAX: (706)542-4807
1                                                                       / 95 X86_64 Windows_NT NASTRAN     / DEC 27, 16 / PAGE     2
                                                                                                                                    
0                                                                                                                                   
                                                                                                         
                                                                                                         
                         INSTALLATION CENTER USER INFORMATION GIVEN IN THIS SECTION                      
                                                                                                         
                                     *********************************************                       
                                     *                                           *                       
                                     *  PLEASE READ THE COMMENT IN DEMO PROBLEM  *                       
                                     *  D01002A ABOUT SYSTEM TIMING CONSTANTS    *                       
                                     *                                           *                       
                                     *********************************************                       
                                                                                                         
                         ===X=    TOP OF PAGE REQUEST IF 'X' IS REPLACED BY '='                          
                                                                                                         
1                                                                       / 95 X86_64 Windows_NT NASTRAN     / DEC 27, 16 / PAGE     3
                                                                                                                                    
0                                                                                                                                   
0*** USER INFORMATION MESSAGE 225, GINO TIME CONSTANTS ARE BEING COMPUTED
     (SEE NASINFO FILE FOR ELIMINATION OF THESE COMPUTATIONS)
1                                                                       / 95 X86_64 Windows_NT NASTRAN     / DEC 27, 16 / PAGE     4
                                                                                                                                    
0        N A S T R A N    E X E C U T I V E    C O N T R O L    D E C K    E C H O                                                  
0                                                                                                                                   
                                                                                                                                    
                                                                                                                                    
     ID    T08031A,NASTRAN                                                           
     APP   DISP                                                                      
     SOL   8                                                                         
     DIAG  14                                                                        
     TIME  500                                                                       
     $                                                                               
0*** $   ... READFILE FROM-  COSMFVA                                                 
     $ COSMIC ALTERS FOR MODAL FORCED VIBRATION ANALYSIS (COSMFVA)                   
     $ ALTER    3 $                                                                  
     INSERT FILE $                                                                   
     FILE     UXVF=APPEND/PDT=APPEND/PD=APPEND $                                     
     $ PERFORM INITIAL ERROR CHECKS ON NSEGS, KMAX, KMIN AND KINDEX.                 
     COND     ERRORC1,NSEGS $  IF USER HAS NOT SPECIFIED NSEGS.                      
     COND     ERRORC1,KMAX  $  IF USER HAS NOT SPECIFIED KMAX.                       
     COND     ERRORC1,KMIN  $  IF USER HAS SPECIFIED NEGATIVE KMIN.                  
     PARAM    //*NE*/KTEST/V,Y,KMAX/V,Y,KMIN=0 $                                     
     COND     LBL1KIND,KTEST $                                                       
     $ KMIN = KMAX                                                                   
     PARAM    //*ADD*/KINDEX/V,Y,KMAX/0  $  SET KINDEX = KMAX (= KMIN)               
     JUMP     LBL2KIND $                                                             
     LABEL    LBL1KIND                                                               
     $ KMIN .NE. KMAX                                                                
     COND     ERRORC1,KINDEX  $  IF USER HAS NOT SPECIFIED KINDEX.                   
     PARAM    //*LT*/KTEST/V,Y,KINDEX/V,Y,KMIN $                                     
     COND     ERRORC1,KTEST $                                                        
     PARAM    //*GT*/KTEST/V,Y,KINDEX/V,Y,KMAX $                                     
     COND     ERRORC1,KTEST $                                                        
     LABEL    LBL2KIND $                                                             
     PARAM    //*EQ*/CYCIOERR /V,Y,CYCIO=0 /0 $                                      
     COND     ERRORC1,CYCIOERR  $  IF USER HAS NOT SPECIFIED CYCIO.                  
     PARAM    //*DIV*/NSEG2 /V,Y,NSEGS /2 $  NSEG2 = NSEGS/2                         
     PARAM    //*SUB*/KMAXERR /NSEG2 /V,Y,KMAX $                                     
     COND     ERRORC1,KMAXERR $  IF KMAX .GT. NSEGS/2                                
     $ CHECK FOR KINDEX = 0                                                          
     PARAM    //*EQ*/KTEST/V,Y,KINDEX/0 $                                            
     COND     LBL3KIND,KTEST $                                                       
     $ CHECK FOR KINDEX = NSEGS/2 (NSEGS EVEN ONLY)                                  
     PARAM    //*ADD*/NSEGS1/V,Y,NSEGS/1 $                                           
     PARAM    //*DIV*/NSEG21/NSEGS1/2 $                                              
     PARAM    //*EQ*/KEVEN/NSEG21/NSEG2 $                                            
     PARAM    //*EQ*/KNSEG2/NSEG2/V,Y,KINDEX $                                       
     PARAM    //*EQ*/KTEST/KNSEG2/KEVEN $                                            
     COND     LBL3KIND,KTEST $                                                       
     $ KINDEX IS .NE.0 AND .NE. NSEGS/2 (NSEGS EVEN ONLY)                            
     PARAM    //*ADD*/KTEST/1/0 $                                                    
     LABEL   LBL3KIND $                                                              
1                                                                       / 95 X86_64 Windows_NT NASTRAN     / DEC 27, 16 / PAGE     5
                                                                                                                                    
0        N A S T R A N    E X E C U T I V E    C O N T R O L    D E C K    E C H O                                                  
0                                                                                                                                   
                                                                                                                                    
                                                                                                                                    
     PARAM    //*GT*/KFLAG/KTEST/0 $                                                 
     $ SET DEFAULTS FOR PARAMETERS.                                                  
     PARAM    //*NOP*/V,Y,NOKPRT=+1 /V,Y,LGKAD=-1 $                                  
     $ CALCULATE OMEGA, 2*OMEGA AND OMEGA**2 FROM RPS. SET DEFAULT RPS.              
     PARAMR   //*MPY*/OMEGA /V,Y,RPS=0.0 /6.283185 $                                 
     PARAMR   //*MPY*/OMEGA2 /2.0 /OMEGA $                                           
     PARAMR   //*MPY*/OMEGASQR /OMEGA /OMEGA $                                       
     $ GENERATE NORPS FLAG IF RPS IS ZERO.                                           
     PARAMR   //*EQ*//V,Y,RPS /0.0 ////NORPS $                                       
     $ MAKE SURE COUPLED MASSES HAVE NOT BEEN REQUESTED.                             
     PARAM    //*NOT*/NOLUMP /V,Y,COUPMASS=-1 $                                      
     COND     ERRORC2,NOLUMP $                                                       
     $ ALTER    21,21 $  ADD SLT TO OUTPUT FOR TRLG.                                 
     DELETE GP3 $                                                                    
     GP3      GEOM3,EQEXIN,GEOM2 / SLT,GPTT / NOGRAV $                               
     $ ALTER    24 $                                                                 
     INSERT TA1,2 $                                                                  
     $ SINCE MULTIPLE CONSTRAINTS ARE NOT ALLOWED EXECUTE GP4 NOW SO THAT            
     $ MORE ERROR CHECKS CAN BE MADE BEFORE ELEMENT GENERATION.                      
     $ ADD YS NEEDED FOR PSF RECOVERY IN SSG2.                                       
     PARAM    //*MPY*/NSKIP /0/0 $                                                   
     GP4      CASECC,GEOM4,EQEXIN,GPDT,BGPDT,CSTM,/RG,YS,USET,ASET,/LUSET/           
              S,N,MPCF1/S,N,MPCF2/S,N,SINGLE/S,N,OMIT/S,N,REACT/S,N,NSKIP/           
              S,N,REPEAT/S,N,NOSET/S,N,NOL/S,N,NOA/C,Y,ASETOUT/S,Y,AUTOSPC $         
     PURGE    GM,GMD/MPCF1/GO,GOD/OMIT/KFS,PSF,QPC/SINGLE $                          
     $ SUPORT BULK DATA IS NOT ALLOWED.                                              
     PARAM    //*NOT*/REACDATA /REACT $                                              
     COND     ERRORC3,REACDATA $                                                     
     $ EXECUTE DPD NOW SO CHECKS CAN BE MADE. ADD TRL TO OUTPUT DATA BLOCKS.         
     DPD      DYNAMICS,GPL,SIL,USET / GPLD,SILD,USETD,TFPOOL,DLT,PSDL,FRL,,          
              TRL,EED,EQDYN / LUSET/S,N,LUSETD/NOTFL/S,N,NODLT/S,N,NOPSDL/           
              S,N,NOFRL/NONLFT/S,N,NOTRL/S,N,NOEED//S,N,NOUE $                       
     $ CHECK FOR EIGENVALUE EXTRACTION DATA                                          
     COND     ERRORC7,NOEED $                                                        
     $ MUST HAVE EITHER FREQ OR TSTEP BULK DATA.                                     
     PARAM    //*AND*/FTERR /NOFRL /NOTRL $                                          
     COND     ERRORC5,FTERR $  NO FREQ OR TSTEP BULK DATA.                           
     $ ONLY FREQUENCY OR TSTEP IS ALLOWED IN THE CASE CONTROL                        
     PARAML   CASECC //*TABLE1*/1/14//FREQSET $                                      
     PARAML   CASECC //*TABLE1*/1/38//TIMESET $                                      
     PARAM    //*MPY*/FREQTIME /FREQSET /TIMESET $                                   
     PARAM    //*NOT*/FTERR1 /FREQTIME $                                             
     PARAM    //*LE*/NOFREQ /FREQSET /0 $                                            
     PARAM    //*LE*/NOTIME /TIMESET /0 $                                            
     COND     ERRORC6,FTERR1 $  BOTH FREQ AND TSTEP IN CASE CONTROL DECK.            
     $ EPOINT BULK DATA NOT ALLOWED                                                  
     PARAM    //*NOT*/EXTRAPTS /NOUE $                                               
1                                                                       / 95 X86_64 Windows_NT NASTRAN     / DEC 27, 16 / PAGE     6
                                                                                                                                    
0        N A S T R A N    E X E C U T I V E    C O N T R O L    D E C K    E C H O                                                  
0                                                                                                                                   
                                                                                                                                    
                                                                                                                                    
     COND     ERRORC4,EXTRAPTS $                                                     
     $ GENERATE DATA FOR CYCT2 MODULE.                                               
     GPCYC    GEOM4,EQDYN,USETD /CYCDD /CTYPE=ROT /S,N,NOGO $                        
     COND     ERRORC1,NOGO $                                                         
     $ ALTER    29 $                                                                 
     INSERT EMG,-1 $                                                                 
     PARAM    //*NOP*/V,Y,KGGIN=-1 $                                                 
     COND     JMPKGGIN,KGGIN $                                                       
     PARAM    //*ADD*/NOKGGX/-1/0 $                                                  
     INPUTT1  /KTOTAL,,,,/C,Y,LOCATION=-1/C,Y,INPTUNIT=0 $                           
     EQUIV    KTOTAL,KGGX $                                                          
     LABEL    JMPKGGIN $                                                             
     $ ALTER    34 $                                                                 
     INSERT EMA,1 $                                                                  
     $ PRE-PURGE DATA BLOCKS THAT WILL NOT BE GENERATED                              
     PARAM    //*OR*/NOBM1 /NOMGG /NORPS $                                           
     PURGE    B1GG,M1GG /NOBM1 $                                                     
     PURGE    M2GG,M2BASEXG /NOMGG $                                                 
     $ ALTER    38 $                                                                 
     INSERT EMA(2),1 $                                                               
     $ GENERATE DATA BLOCKS FRLX, B1GG, M1GG, M2GG AND BASEGX.                       
     $ GENERATE PARAMETERS FKMAX AND NOBASEX.                                        
     FVRSTR1  CASECC,BGPDT,CSTM,DIT,FRL,MGG,, / FRLX,B1GG,M1GG,M2GG,BASEXG,          
              PDZERO,, /NOMGG/V,Y,CYCIO/V,Y,NSEGS/V,Y,KMAX/S,N,FKMAX/                
              V,Y,BXTID=-1/V,Y,BXPTID=-1/V,Y,BYTID=-1/V,Y,BYPTID=-1/                 
              V,Y,BZTID=-1/V,Y,BZPTID=-1/S,N,NOBASEX/NOFREQ/OMEGA  $                 
     PARAML   FRLX //*PRES*////NOFRLX $                                              
     COND     LBLFRLX,NOFRLX $                                                       
     EQUIV    FRLX,FRL $                                                             
     LABEL    LBLFRLX $                                                              
     $ ALTER    47 $                                                                 
     INSERT EMA(4),2 $                                                               
     PARAM    //*ADD*/NOBGG /NOBM1 /0 $  RESET NOBGG.                                
     $ ALTER    58 $                                                                 
     INSERT GPSTGEN $                                                                
     $ REDEFINE BGG AND KGG.                                                         
     COND     LBL11A,NOBM1 $                                                         
     PARAMR   //*COMPLEX*// OMEGA2 /0.0/ CMPLX1 $                                    
     PARAMR   //*SUB*/ MOMEGASQ / 0.0 / OMEGASQR $                                   
     PARAMR   //*COMPLEX*// MOMEGASQ / 0.0 / CMPLX2 $                                
     ADD      BGG,B1GG / BGG1 / (1.0,0.0) / CMPLX1 $                                 
     EQUIV    BGG1,BGG $                                                             
     ADD      KGG,M1GG / KGG1 / (1.0,0.0) / CMPLX2 $                                 
     EQUIV    KGG1,KGG $                                                             
     LABEL    LBL11A                                                                 
     $ ALTER    59,62 $  GP4 HAS BEEN MOVED-UP.                                      
     DELETE GP4,-1,GP4,2 $                                                           
1                                                                       / 95 X86_64 Windows_NT NASTRAN     / DEC 27, 16 / PAGE     7
                                                                                                                                    
0        N A S T R A N    E X E C U T I V E    C O N T R O L    D E C K    E C H O                                                  
0                                                                                                                                   
                                                                                                                                    
                                                                                                                                    
     $ ALTER    87,87 $  DPD HAS BEEN MOVED-UP.                                      
     DELETE DPD $                                                                    
     $ ALTER    112 $  PARAM AND EQUIV LOGIC DEPENDING ON LGKAD FOR FREQ/TRAN.       
     INSERT GKAD,-3 $                                                                
     PARAM    //*AND*/KDEKA/NOUE/NOK2PP $                                            
     COND     LGKAD1,LGKAD $  BRANCH IN NOT FREQRESP.                                
     $ ALTER    113 $  SEE ALTER 112 COMMENT.                                        
     INSERT GKAD,-2 $                                                                
     JUMP     LGKAD2 $                                                               
     LABEL    LGKAD1 $                                                               
     EQUIV    M2PP,M2DD/NOA/B2PP,B2DD/NOA/K2PP,K2DD/NOA/MAA,MDD/MDEMA/               
              KAA,KDD/KDEKA $                                                        
     LABEL    LGKAD2 $                                                               
     $ ALTER    115,115 $                                                            
     DELETE GKAD $                                                                   
     $ ADD PARAMETERS GKAD, W3 AND W4 TO GKAD.                                       
     GKAD     USETD,GM,GO,KAA,BAA,MAA,K4AA,K2PP,M2PP,B2PP/KDD,BDD,MDD,GMD,           
              GOD,K2DD,M2DD,B2DD/C,Y,GKAD=TRANRESP/*DISP*/*DIRECT*/                  
              C,Y,G=0.0/C,Y,W3=0.0/C,Y,W4=0.0/NOK2PP/NOM2PP/NOB2PP/MPCF1/            
              SINGLE/OMIT/NOUE/NOK4GG/NOBGG/KDEK2/-1 $                               
     $ ALTER    116 $  SEE ALTER 112 COMMENT.                                        
     INSERT GKAD,1 $                                                                 
     COND     LGKAD3,LGKAD $  BRANCH IF NOT FREQRESP.                                
     $ ALTER    117 $  SEE ALTER 112 COMMENT.                                        
     INSERT GKAD,2 $                                                                 
     JUMP     LGKAD4 $                                                               
     LABEL    LGKAD3 $                                                               
     EQUIV    B2DD,BDD/NOGPDT/M2DD,MDD/NOSIMP/K2DD,KDD/KDEK2 $                       
     LABEL    LGKAD4 $                                                               
     $ ALTER    118,122 $                                                            
     DELETE FRRD,-2,VDR $                                                            
     $ NEW SOLUTION LOGIC                                                            
     $ GENERATE TIME-DEPENDENT LOADS IF TSTEP WAS REQUESTED IN CASE CONTROL.         
     $ USE FOL INSTEAD OF PPF TO GET OUTPUT FREQUENCY LIST.                          
     COND     LBLTRL1,NOTIME $                                                       
     $ LOOP THRU ALL SUBCASES FOR TIME-DEPENDENT LOADS.                              
     PARAM    //*MPY*/REPEATT /1 /-1 $                                               
     PARAM    //*ADD*/APPFLG /1 /0 $  INITIALIZE FOR SDR1.                           
     LABEL    TRLGLOOP $                                                             
     CASE     CASECC,/CASEYY/*TRAN*/S,N,REPEATT/S,N,NOLOOP1 $                        
     PARAM    //*MPY*/NCOL /0 /1 $                                                   
     TRLG     CASEYY,USETD,DLT,SLT,BGPDT,SIL,CSTM,TRL,DIT,GMD,GOD,,EST,MGG,/         
              ,,PDT1,PD1,,TOL/ NOSET/NCOL $                                          
     SDR1     TRL,PDT1,,,,,,,,, / ,PDT, /APPFLG/*DYNAMICS* $                         
     SDR1     TRL,PD1 ,,,,,,,,, / ,PD , /APPFLG/*DYNAMICS* $                         
     PARAM    //*ADD*/APPFLG /APPFLG /1 $  APPFLG=APPFLG+1.                          
     COND     TRLGDONE,REPEATT $                                                     
1                                                                       / 95 X86_64 Windows_NT NASTRAN     / DEC 27, 16 / PAGE     8
                                                                                                                                    
0        N A S T R A N    E X E C U T I V E    C O N T R O L    D E C K    E C H O                                                  
0                                                                                                                                   
                                                                                                                                    
                                                                                                                                    
     REPT     TRLGLOOP,100 $                                                         
     JUMP     ERROR3 $                                                               
     LABEL    TRLGDONE $                                                             
     FVRSTR2  TOL,,,,,,, / FRLZ,FOLZ,REORDER1,REORDER2,,,, /V,Y,NSEGS/               
              V,Y,CYCIO/S,Y,LMAX=-1/FKMAX/S,N,FLMAX/S,N,NTSTEPS/S,N,NORO1/           
              S,N,NORO2 $                                                            
     EQUIV    FRLZ,FRL // FOLZ,FOL $                                                 
     JUMP     LBLFRL2 $                                                              
     LABEL    LBLTRL1 $                                                              
     $ GENERATE FREQUENCY-DEPENDENT LOADS IF FREQUENCY WAS SELECTED IN CC.           
     FRLG     CASEXX,USETD,DLT,FRL,GMD,GOD,DIT, / PPF,PSF,PDF,FOL,PHFDUM /           
              *DIRECT*/FREQY/*FREQ* $                                                
     COND     LBLFRLX1,NOFRLX $  ZERO OUT LOAD COLUMNS IF FRLX WAS GENERATED.        
     MPYAD    PPF,PDZERO, / PPFX /0 $                                                
     EQUIV    PPFX,PPF $                                                             
     LABEL    LBLFRLX1 $                                                             
     $ FORM NEW LOADS.                                                               
     COND     LBLFRL1,NOBASEX $                                                      
     MPYAD    M2GG,BASEXG, / M2BASEXG /0 $                                           
     ADD      PPF,M2BASEXG / PPF1 /(1.0,0.0) /(-1.0,0.0) $                           
     EQUIV    PPF1,PPF $                                                             
     COND     LBLBASE1,NOSET $                                                       
     SSG2     USETD,GMD,YS,KFS,GOD,,PPF / ,PODUM1,PSF1,PDF1 $                        
     EQUIV    PSF1,PSF // PDF1,PDF $                                                 
     LABEL    LBLBASE1 $                                                             
     LABEL    LBLFRL1 $                                                              
     EQUIV    PPF,PDF/NOSET $                                                        
     $ LOADS ARE FREQUENCY-DEPENDENT                                                 
     $ PERFORM CYCLIC TRANSFORMATION ON LOADS IF CYCIO=+1.                           
     PARAML   PDF //*TRAILER*/1 /PDFCOLS $                                           
     $ CALCULATE THE NUMBER OF LOADS FOR CYCIO=-1.                                   
     PARAM    //*DIV*/NLOAD /PDFCOLS /FKMAX $ NLOAD = NF/FKMAX                       
     EQUIV    PDF,PXF/CYCIO $                                                        
     COND     LBLPDONE,CYCIO $                                                       
     $ CALCULATE THE NUMBER OF LOADS FOR CYCIO=1.                                    
     PARAM    //*DIV*/NLOAD /PDFCOLS /V,Y,NSEGS $ NLOAD = NF/NSEGS                   
     CYCT1    PDF / PXF,GCYCF1 /CTYPE /*FORE*/V,Y,NSEGS=-1/V,Y,KMAX=-1/              
              NLOAD /S,N,NOGO $                                                      
     COND     ERRORC1,NOGO $                                                         
     JUMP     LBLPDONE $                                                             
     LABEL    LBLFRL2 $                                                              
     $ LOADS ARE TIME-DEPENDENT                                                      
     PARAM    //*NOT*/NOTCYCIO /V,Y,CYCIO $                                          
     $ BRANCH DEPENDING ON VALUE OF CYCIO                                            
     COND     LBLTRL2,NOTCYCIO $                                                     
     $ CYCIO=-1                                                                      
     EQUIV    PD,PDTRZ1/NORO1 $                                                      
1                                                                       / 95 X86_64 Windows_NT NASTRAN     / DEC 27, 16 / PAGE     9
                                                                                                                                    
0        N A S T R A N    E X E C U T I V E    C O N T R O L    D E C K    E C H O                                                  
0                                                                                                                                   
                                                                                                                                    
                                                                                                                                    
     COND     LBLRO1A,NORO1 $                                                        
     MPYAD    PD,REORDER1, / PDTRZ1 / 0 $                                            
     LABEL    LBLRO1A $                                                              
     CYCT1    PDTRZ1 / PXTRZ1,GCYCF2 /CTYPE/*FORE*/NTSTEPS/V,Y,LMAX/FKMAX/           
              S,N,NOGO $                                                             
     COND     ERRORC1,NOGO $                                                         
     EQUIV    PXTRZ1,PXFZ1/NORO2 $                                                   
     COND     LBLRO2A,NORO2 $                                                        
     MPYAD    PXTRZ1,REORDER2, / PXFZ1 /0 $                                          
     LABEL    LBLRO2A $                                                              
     EQUIV    PXFZ1,PXF1 $                                                           
     JUMP     LBLTRL3 $                                                              
     LABEL    LBLTRL2 $                                                              
     $ CYCIO = +1                                                                    
     MPYAD    PD,REORDER1, / PDTRZ2 / 0 $                                            
     CYCT1    PDTRZ2 /PXTRZ2,GCYCF3 /CTYPE/*FORE*/NTSTEPS/V,Y,LMAX/                  
              V,Y,NSEGS/S,N,NOGO $                                                   
     COND     ERRORC1,NOGO $                                                         
     EQUIV    PXTRZ2,PXTR2/NORO2 $                                                   
     COND     LBLRO2B,NORO2 $                                                        
     MPYAD    PXTRZ2,REORDER2, / PXTR2 /0 $                                          
     LABEL    LBLRO2B $                                                              
     CYCT1    PXTR2 / PXFZ2,GCYCF4 / CTYPE/*FORE*/V,Y,NSEGS/V,Y,KMAX/FLMAX/          
              S,N,NOGO $                                                             
     COND     ERRORC1,NOGO $                                                         
     EQUIV    PXFZ2,PXF1 $                                                           
     LABEL    LBLTRL3 $                                                              
     $ TIME-DEPENDENT LOADS ARE REAL. MAKE LOADS COMPLEX TO CORRESPOND               
     $ TO FREQUENCY DEPENDENT LOADS. ALSO SDR2 EXPECTS LOADS TO BE COMPLEX           
     $ IN FREQRESP TYPE PROBLEMS.                                                    
     COPY     PXF1 / PXF2  $  CONVERT REAL PXF1 TO COMPLEX PXF.                      
     ADD      PXF1,PXF2 / PXF / (0.5,1.0) / (0.5,-1.0) $                             
     $ DEFINE NLOAD FOR CYCT2.                                                       
     PARAM    //*ADD*/NLOAD /FLMAX /0 $  NLOAD = FLMAX                               
     LABEL    LBLPDONE $                                                             
     $                                                                               
     $ INITIALIZE UXVF IF KMIN IS NOT ZERO.                                          
     $                                                                               
     PARAM    //*ADD*/KMINL /V,Y,KINDEX=-1/-1 $                                      
     COND     NOKMINL,KMINL $                                                        
     PARAM    //*ADD*/KMINV /0 /0 $                                                  
     LABEL    KMINLOOP $                                                             
     CYCT2    CYCDD,,,PXF,, /,,PKFZ,, / *FORE*/V,Y,NSEGS/KMINV/CYCSEQ/NLOAD/         
              S,N,NOGO $                                                             
     COND     ERRORC1,NOGO $                                                         
     ADD      PKFZ, / UKVFZ / (0.0,0.0) $                                            
     PRTPARM  //0/*KINDEX* $                                                         
1                                                                       / 95 X86_64 Windows_NT NASTRAN     / DEC 27, 16 / PAGE    10
                                                                                                                                    
0        N A S T R A N    E X E C U T I V E    C O N T R O L    D E C K    E C H O                                                  
0                                                                                                                                   
                                                                                                                                    
                                                                                                                                    
     CYCT2    CYCDD,,,UKVFZ,, /,,UXVF,, /*BACK*/V,Y,NSEGS/KMINV/CYCSEQ/NLOAD/        
              S,N,NOGO $                                                             
     PRTPARM  //0/*KINDEX* $                                                         
     COND     ERRORC1,NOGO $                                                         
     PARAM    //*ADD*/KMINV /KMINV /1 $                                              
     REPT     KMINLOOP,KMINL $                                                       
     LABEL    NOKMINL $                                                              
     COND     NOKPRT,NOKPRT $                                                        
     PRTPARM  //0/*KINDEX* $                                                         
     LABEL    NOKPRT $                                                               
     CYCT2    CYCDD,KDD,MDD,,, /KKKF,MKKF,,, /*FORE*/V,Y,NSEGS/V,Y,KINDEX/           
              CYCSEQ/NLOAD/S,N,NOGO $                                                
     COND     ERRORC1,NOGO $                                                         
     CYCT2    CYCDD,BDD,,PXF,, /BKKF,,PKF,, /*FORE*/V,Y,NSEGS/V,Y,KINDEX/            
              CYCSEQ/NLOAD/S,N,NOGO $                                                
     COND     ERRORC1,NOGO $                                                         
     CYCT2    CYCDD,KAA,MAA,,,/KKK,MKK,,,/*FORE*/V,Y,NSEGS/V,Y,KINDEX/               
              CYCSEQ=-1/1/S,N,NOGO $                                                 
     COND     ERRORC1,NOGO $                                                         
     READ     KKK,MKK,,,EED,,CASECC/LAMK,PHIK,MIK,OEIGS/*MODES*/S,N,NEIGV $          
     OFP      OEIGS,,,,,//S,N,CARDNO $                                               
     COND     FINIS,NEIGV $                                                          
     OFP      LAMK,,,,,//S,N,CARDNO $                                                
     COND     NOPLOT,JUMPPLOT $                                                      
     CYCT2    CYCDD,,,,PHIK,LAMK/,,,PHIA,LAMA/*BACK*/V,Y,NSEGS/V,Y,KINDEX/           
              CYCSEQ/1/S,N,NOGO $                                                    
     COND     ERRORC1,NOGO $                                                         
     SDR1     USET,,PHIA,,,GO,GM,,KFS,,/PHIG,,QG/1/*REIG* $                          
     SDR2     CASECC,CSTM,MPT,DIT,EQEXIN,SIL,,,BGPDP,LAMA,QG,PHIG,EST,,,/            
              ,OQG1,OPHIG,OES1,OEF1,PPHIG,,/*REIG* $                                 
     PLOT     PLTPAR,GPSETS,ELSETS,CASECC,BGPDT,EQEXIN,SIP,,PPHIG,GPECT,,,/          
              PLOTXX/NSIL/LUSEP/JUMPPLOT/PLTFLG/S,N,PFILE $                          
     PRTMSG   PLOTXX// $                                                             
     LABEL    NOPLOT $                                                               
     GKAM     USETD,PHIK,MIK,LAMK,DIT,M2DD,B2DD,K2DD,CASECC/MDUM,BDUM,               
              KDUM,PHIKH/NOUE/C,Y,LMODES=0/C,Y,LFREQ=0.0/C,Y,HFREQ=-1.0/             
              NOM2PP/NOB2PP/NOK2PP/NONCUP/S,N,FMODE=0 $                              
     PARAML   PHIKH//*TRAILER*/1/S,N,NMODES $                                        
     SMPYAD   PHIKH,MKKF,PHIKH,,,/MHH/3////1 $                                       
     SMPYAD   PHIKH,KKKF,PHIKH,,,/KHH/3////1 $                                       
     SMPYAD   PHIKH,BKKF,PHIKH,,,/BHH/3////1 $                                       
     MPYAD    PHIKH,PKF,/PHF/1 $                                                     
     EQUIV    MHH,MKKF//BHH,BKKF//KHH,KKKF//PHF,PKF $                                
     COND     KLABEL1,KFLAG $                                                        
     $ KINDEX IS EITHER 0 OR NSEGS/2 (NSEGS EVEN ONLY)                               
     APDB     EDT,USET,BGPDT,CSTM,EQEXIN,GM,GO/AERO,ACPT,,GTKA,/                     
              S,N,NK/S,N,NJ/V,Y,MINMACH/V,Y,MAXMACH/V,Y,IREF//                       
1                                                                       / 95 X86_64 Windows_NT NASTRAN     / DEC 27, 16 / PAGE    11
                                                                                                                                    
0        N A S T R A N    E X E C U T I V E    C O N T R O L    D E C K    E C H O                                                  
0                                                                                                                                   
                                                                                                                                    
                                                                                                                                    
              NMODES/V,Y,KINDEX $                                                    
     AMG      AERO,ACPT/AJJL,SKJ,D1JK,D2JK/NK/NJ/1 $                                 
     AMP      AJJL,SKJ,D1JK,D2JK,GTKA,PHIKH,,,USETD,AERO/QHHL,,/                     
              NOUE/1 $                                                               
     JUMP     KLABEL2 $                                                              
     LABEL    KLABEL1 $                                                              
     $ KINDEX IS .NE.0 AND .NE. NSEGS/2 (NSEGS EVEN ONLY)                            
     CYCT2    CYCDD,,,,PHIKH,LAMK/,,,PHIAH,LAMAH/*BACK*/V,Y,NSEGS/                   
              V,Y,KINDEX/CYCSEQ/1/S,N,NOGO $                                         
     COND     ERRORC1,NOGO $                                                         
     APDB     EDT,USET,BGPDT,CSTM,EQEXIN,GM,GO/AERO,ACPT,,GTKA,PVECT/                
              S,N,NK/S,N,NJ/V,Y,MINMACH/V,Y,MAXMACH/V,Y,IREF/*COSINE*/               
              NMODES/V,Y,KINDEX $                                                    
     AMG      AERO,ACPT/AJJL,SKJ,D1JK,D2JK/NK/NJ/1 $                                 
     PARTN    PHIAH,PVECT,/PHIAC,,,/1 $                                              
     AMP      AJJL,SKJ,D1JK,D2JK,GTKA,PHIAC,,,USETD,AERO/QHHLC,,/NOUE/1 $            
     APDB     EDT,USET,BGPDT,CSTM,EQEXIN,GM,GO/AERO,ACPT,,GTKA,PVECT/                
              S,N,NK/S,N,NJ/V,Y,MINMACH/V,Y,MAXMACH/V,Y,IREF/*SINE*/NMODES/          
              V,Y,KINDEX $                                                           
     PARTN    PHIAH,PVECT,/PHIAS,,,/1 $                                              
     AMP      AJJL,SKJ,D1JK,D2JK,GTKA,PHIAS,,,USETD,AERO/QHHLS,,/NOUE/1 $            
     ADD      QHHLC,QHHLS/QHHL/(1.0,0.0)/(1.0,0.0) $                                 
     LABEL    KLABEL2 $                                                              
     $ SOLUTION                                                                      
     FRRD2    KKKF,BKKF,MKKF,QHHL,PKF,FOL/UKVF/V,Y,BOV/V,Y,Q/-1.0 $                  
     DDR1     UKVF,PHIKH/UKKVF $                                                     
     EQUIV    UKKVF,UKVF $                                                           
     CYCT2    CYCDD,,,UKVF,, /,,UXVF,, /*BACK*/V,Y,NSEGS/V,Y,KINDEX/CYCSEQ/          
              NLOAD/S,N,NOGO $                                                       
     COND     ERRORC1,NOGO $                                                         
     EQUIV    UXVF,UDVF / CYCIO $                                                    
     COND     LCYC3,CYCIO $  IF CYCIO .GE. 0 THEN TRANSFORM TO PHYSICAL.             
     CYCT1    UXVF / UDVF,GCYCB1 / CTYPE/*BACK*/V,Y,NSEGS/V,Y,KMAX/NLOAD $           
     LABEL    LCYC3 $                                                                
     COND     LBLTRL4,NOTIME $                                                       
     EQUIV    PXF,PDF2 / CYCIO $                                                     
     COND     LCYC4,CYCIO $  IF CYCIO .GE. 0 THEN TRANSFORM TO PHYSICAL.             
     CYCT1    PXF / PDF2,GCYCB2 / CTYPE/*BACK*/V,Y,NSEGS/V,Y,KMAX/NLOAD $            
     LABEL    LCYC4 $                                                                
     $ IF LOADS WERE TIME-DEPENDENT THEN RECOVER PPF AND PSF FROM PXF.               
     SDR1     USETD,,PDF2,,,GOD,GMD,,,, / PPFZ,, /1 /*DYNAMICS* $                    
     SSG2     USETD,GMD,YS,KFS,GOD,,PPFZ / ,PODUM,PSFZ,PLDUM $                       
     EQUIV    PPFZ,PPF // PSFZ,PSF $                                                 
     LABEL    LBLTRL4 $                                                              
     VDR      CASEXX,EQDYN,USETD,UDVF,FOL,XYCDB,/OUDVC1,/*FREQRESP*/                 
              *DIRECT*/S,N,NOSORT2/S,N,NOD/S,N,NOP/FMODE $                           
     $ ALTER    138,138 $  USE FOL INSTEAD OF PPF TO GET OUTPUT FREQUENCY LIST.      
1                                                                       / 95 X86_64 Windows_NT NASTRAN     / DEC 27, 16 / PAGE    12
                                                                                                                                    
0        N A S T R A N    E X E C U T I V E    C O N T R O L    D E C K    E C H O                                                  
0                                                                                                                                   
                                                                                                                                    
                                                                                                                                    
     DELETE SDR2 $                                                                   
     SDR2     CASEXX,CSTM,MPT,DIT,EQDYN,SILD,,,BGPDP,FOL,QPC,UPVC,EST,XYCDB,         
              PPF,/OPPC1,OQPC1,OUPVC1,OESC1,OEFC1,PUPVC1,,/*FREQRESP*/               
              S,N,NOSORT2 $                                                          
     CURV     OESC1,MPT,CSTM,EST,SIL,GPL/OESC1M,/1 $                                 
     $ ALTER    140,141 $                                                            
     DELETE SDR3(2),SDR3(2),1 $                                                      
     SDR3     OPPC1,OQPC1,OUPVC1,OESC1,OEFC1,OESC1M/OPPC2,OQPC2,OUPVC2,              
              OESC2,OEFC2,OESC2M $                                                   
     OFP      OPPC2,OQPC2,OUPVC2,OEFC2,OESC2,OESC2M//S,N,CARDNO $                    
     $ ALTER    152,152 $                                                            
     DELETE PLOT(2),-4 $                                                             
     OFP      OUPVC1,OPPC1,OQPC1,OEFC1,OESC1,OESC1M//S,N,CARDNO $                    
     $ ALTER    160 $  ADD LABEL FOR ERROR3.                                         
     INSERT PLOT(2),4 $                                                              
     LABEL    ERROR3 $                                                               
     $ ALTER    163,166 $  REMOVE ERROR1 AND ERROR2.                                 
     DELETE PLOT(2),7,PLOT(2),10 $                                                   
     $ ALTER    168 $  FORCED VIBRATION ERRORS                                       
     INSERT END,-3 $                                                                 
     LABEL    ERRORC1 $  CHECK NSEGS, KMAX AND OTHER CYCLIC DATA.                    
     PRTPARM  //-5 /*CYCSTATICS* $                                                   
     LABEL    ERRORC2 $  COUPLED MASS NOT ALLOWED.                                   
     PRTPARM  //0 /C,Y,COUPMASS $                                                    
     JUMP     FINIS $                                                                
     LABEL    ERRORC3 $  SUPORT BULK DATA NOT ALLOWED.                               
     PRTPARM  //-6 /*CYCSTATICS* $                                                   
     LABEL    ERRORC4 $  EPOINT BULK DATA NOT ALLOWED.                               
     PRTPARM  //0 /*NOUE* $                                                          
     JUMP     FINIS $                                                                
     LABEL    ERRORC5 $  NEITHER FREQ OR TSTEP WERE IN BULK DATA DECK.               
     PRTPARM  //0 /*NOFRL* $                                                         
     PRTPARM  //0 /*NOTRL* $                                                         
     JUMP     FINIS $                                                                
     LABEL    ERRORC6 $  BOTH FREQ AND TSTEP WERE SELECTED IN CASE CONTROL.          
     PRTPARM  //0 /*NOFREQ* $                                                        
     PRTPARM  //0 /*NOTIME* $                                                        
     JUMP     FINIS $                                                                
     LABEL    ERRORC7 $  NO EIGENVALUE EXTRACTION DATA                               
     PRTPARM  //-2/*CYCMODES* $                                                      
     ENDALTER $                                                                      
0*** $   END READFILE                                                                
     $                                                                               
     CEND                                                                            
1 FREQ. RESPONSE OF A TURBOPROP TO 1 PER REV. OSC. AIRLOADS             / 95 X86_64 Windows_NT NASTRAN     / DEC 27, 16 / PAGE    13
      NASTRAN TEST PROBLEM NO. T08-03-1A                                                                                            
0     K = 0 MODES, OSCILLATORY AIRLOADS PRESENT                                                                                     
0                                        C A S E    C O N T R O L   D E C K   E C H O                                               
                 CARD                                                                                                               
                 COUNT                                                                                                              
                  1      TITLE    = FREQ. RESPONSE OF A TURBOPROP TO 1 PER REV. OSC. AIRLOADS            
                  2      SUBTITLE = NASTRAN TEST PROBLEM NO. T08-03-1A                                   
                  3      LABEL    = K = 0 MODES, OSCILLATORY AIRLOADS PRESENT                            
                  4      $                                                                               
                  5        SPC       = 1                                                                 
                  6        MPC       = 1                                                                 
                  7        METHOD    = 1                                                                 
                  8        FREQUENCY = 1                                                                 
                  9        DLOAD     = 1000                                                              
                 10      $                                                                               
                 11        DISP(SORT1,PHASE)   = ALL                                                     
                 12        STRESS(SORT1,PHASE) = ALL                                                     
                 13      $                                                                               
                 14      $   NOTE ---                                                                    
                 15      $   THE FOLLOWING DATA IS FOR A RIGID HUB AND UNIFORM FLOW                      
                 16      $                                                                               
                 17      BEGIN BULK                                                                      


                        (NO. OF UNSORTED BULK DATA CARDS READ =  1223, INCLUDING   0 COMMENT CARDS)
0*** USER INFORMATION MESSAGE 207, BULK DATA DECK IS NOT SORTED. NASTRAN WILL RE-ORDER THE INPUT DECK.
1 FREQ. RESPONSE OF A TURBOPROP TO 1 PER REV. OSC. AIRLOADS             / 95 X86_64 Windows_NT NASTRAN     / DEC 27, 16 / PAGE    14
      NASTRAN TEST PROBLEM NO. T08-03-1A                                                                                            
0     K = 0 MODES, OSCILLATORY AIRLOADS PRESENT                                                                                     
0                                                 S O R T E D   B U L K    D A T A    E C H O                                       
                     CARD                                                                                                           
                     COUNT        ---1--- +++2+++ ---3--- +++4+++ ---5--- +++6+++ ---7--- +++8+++ ---9--- +++10+++                  
                    1-        AERO*   0               0.91639E+04     0.28149E+01     0.91790E-07     *AERO   
                    2-        *AERO                                                                           
                    3-        CORD2R  77      0       .0      .0      .0      .0      .0      1.      +C2R    
                    4-        +C2R    10.     -0.618  .0                                                      
                    5-        CTRIA2  1       1       10      9       8                                       
                    6-        CTRIA2  2       2       11      10      8                                       
                    7-        CTRIA2  3       3       8       7       11                                      
                    8-        CTRIA2  4       4       12      11      7                                       
                    9-        CTRIA2  5       5       7       1       12                                      
                   10-        CTRIA2  6       6       13      12      1                                       
                   11-        CTRIA2  7       7       1       2       13                                      
                   12-        CTRIA2  8       8       14      13      2                                       
                   13-        CTRIA2  9       9       2       3       14                                      
                   14-        CTRIA2  10      10      15      14      3                                       
                   15-        CTRIA2  11      11      3       4       15                                      
                   16-        CTRIA2  12      12      16      15      4                                       
                   17-        CTRIA2  13      13      4       5       16                                      
                   18-        CTRIA2  14      14      17      16      5                                       
                   19-        CTRIA2  15      15      5       6       17                                      
                   20-        CTRIA2  16      16      20      19      18                                      
                   21-        CTRIA2  17      17      21      20      18                                      
                   22-        CTRIA2  18      18      18      9       21                                      
                   23-        CTRIA2  19      19      22      21      9                                       
                   24-        CTRIA2  20      20      9       10      22                                      
                   25-        CTRIA2  21      21      10      11      22                                      
                   26-        CTRIA2  22      22      23      22      11                                      
                   27-        CTRIA2  23      23      11      12      23                                      
                   28-        CTRIA2  24      24      24      23      12                                      
                   29-        CTRIA2  25      25      12      13      24                                      
                   30-        CTRIA2  26      26      25      24      13                                      
                   31-        CTRIA2  27      27      13      14      25                                      
                   32-        CTRIA2  28      28      14      15      25                                      
                   33-        CTRIA2  29      29      26      25      15                                      
                   34-        CTRIA2  30      30      15      16      26                                      
                   35-        CTRIA2  31      31      27      26      16                                      
                   36-        CTRIA2  32      32      16      17      27                                      
                   37-        CTRIA2  33      33      29      28      19                                      
                   38-        CTRIA2  34      34      30      29      19                                      
                   39-        CTRIA2  35      35      19      20      30                                      
                   40-        CTRIA2  36      36      31      30      20                                      
                   41-        CTRIA2  37      37      20      21      31                                      
                   42-        CTRIA2  38      38      32      31      21                                      
                   43-        CTRIA2  39      39      21      22      32                                      
                   44-        CTRIA2  40      40      33      32      22                                      
                   45-        CTRIA2  41      41      22      23      33                                      
                   46-        CTRIA2  42      42      23      24      33                                      
                   47-        CTRIA2  43      43      34      33      24                                      
1 FREQ. RESPONSE OF A TURBOPROP TO 1 PER REV. OSC. AIRLOADS             / 95 X86_64 Windows_NT NASTRAN     / DEC 27, 16 / PAGE    15
      NASTRAN TEST PROBLEM NO. T08-03-1A                                                                                            

      K = 0 MODES, OSCILLATORY AIRLOADS PRESENT                                                                                     

                                                  S O R T E D   B U L K    D A T A    E C H O                                       
                     CARD                                                                                                           
                     COUNT        ---1--- +++2+++ ---3--- +++4+++ ---5--- +++6+++ ---7--- +++8+++ ---9--- +++10+++                  
                   48-        CTRIA2  44      44      24      25      34                                      
                   49-        CTRIA2  45      45      35      34      25                                      
                   50-        CTRIA2  46      46      25      26      35                                      
                   51-        CTRIA2  47      47      36      35      26                                      
                   52-        CTRIA2  48      48      26      27      36                                      
                   53-        CTRIA2  49      49      38      37      28                                      
                   54-        CTRIA2  50      50      28      29      39                                      
                   55-        CTRIA2  51      51      39      38      28                                      
                   56-        CTRIA2  52      52      40      39      29                                      
                   57-        CTRIA2  53      53      29      30      40                                      
                   58-        CTRIA2  54      54      30      31      40                                      
                   59-        CTRIA2  55      55      41      40      31                                      
                   60-        CTRIA2  56      56      31      32      41                                      
                   61-        CTRIA2  57      57      42      41      32                                      
                   62-        CTRIA2  58      58      32      33      42                                      
                   63-        CTRIA2  59      59      43      42      33                                      
                   64-        CTRIA2  60      60      33      34      43                                      
                   65-        CTRIA2  61      61      44      43      34                                      
                   66-        CTRIA2  62      62      34      35      44                                      
                   67-        CTRIA2  63      63      45      44      35                                      
                   68-        CTRIA2  64      64      35      36      45                                      
                   69-        CTRIA2  65      65      47      46      37                                      
                   70-        CTRIA2  66      66      37      38      47                                      
                   71-        CTRIA2  67      67      48      47      38                                      
                   72-        CTRIA2  68      68      38      39      48                                      
                   73-        CTRIA2  69      69      49      48      39                                      
                   74-        CTRIA2  70      70      39      40      49                                      
                   75-        CTRIA2  71      71      50      49      40                                      
                   76-        CTRIA2  72      72      40      41      50                                      
                   77-        CTRIA2  73      73      51      50      41                                      
                   78-        CTRIA2  74      74      41      42      51                                      
                   79-        CTRIA2  75      75      52      51      42                                      
                   80-        CTRIA2  76      76      42      43      52                                      
                   81-        CTRIA2  77      77      53      52      43                                      
                   82-        CTRIA2  78      78      43      44      53                                      
                   83-        CTRIA2  79      79      54      53      44                                      
                   84-        CTRIA2  80      80      44      45      54                                      
                   85-        CTRIA2  81      81      56      55      46                                      
                   86-        CTRIA2  82      82      46      47      56                                      
                   87-        CTRIA2  83      83      57      56      47                                      
                   88-        CTRIA2  84      84      47      48      57                                      
                   89-        CTRIA2  85      85      58      57      48                                      
                   90-        CTRIA2  86      86      48      49      58                                      
                   91-        CTRIA2  87      87      59      58      49                                      
                   92-        CTRIA2  88      88      49      50      59                                      
                   93-        CTRIA2  89      89      60      59      50                                      
                   94-        CTRIA2  90      90      50      51      60                                      
1 FREQ. RESPONSE OF A TURBOPROP TO 1 PER REV. OSC. AIRLOADS             / 95 X86_64 Windows_NT NASTRAN     / DEC 27, 16 / PAGE    16
      NASTRAN TEST PROBLEM NO. T08-03-1A                                                                                            

      K = 0 MODES, OSCILLATORY AIRLOADS PRESENT                                                                                     

                                                  S O R T E D   B U L K    D A T A    E C H O                                       
                     CARD                                                                                                           
                     COUNT        ---1--- +++2+++ ---3--- +++4+++ ---5--- +++6+++ ---7--- +++8+++ ---9--- +++10+++                  
                   95-        CTRIA2  91      91      61      60      51                                      
                   96-        CTRIA2  92      92      51      52      61                                      
                   97-        CTRIA2  93      93      62      61      52                                      
                   98-        CTRIA2  94      94      52      53      62                                      
                   99-        CTRIA2  95      95      63      62      53                                      
                  100-        CTRIA2  96      96      53      54      63                                      
                  101-        CTRIA2  97      97      65      64      55                                      
                  102-        CTRIA2  98      98      55      56      65                                      
                  103-        CTRIA2  99      99      66      65      56                                      
                  104-        CTRIA2  100     100     56      57      66                                      
                  105-        CTRIA2  101     101     67      66      57                                      
                  106-        CTRIA2  102     102     57      58      67                                      
                  107-        CTRIA2  103     103     68      67      58                                      
                  108-        CTRIA2  104     104     58      59      68                                      
                  109-        CTRIA2  105     105     69      68      59                                      
                  110-        CTRIA2  106     106     59      60      69                                      
                  111-        CTRIA2  107     107     70      69      60                                      
                  112-        CTRIA2  108     108     60      61      70                                      
                  113-        CTRIA2  109     109     71      70      61                                      
                  114-        CTRIA2  110     110     61      62      71                                      
                  115-        CTRIA2  111     111     72      71      62                                      
                  116-        CTRIA2  112     112     62      63      72                                      
                  117-        CTRIA2  113     113     74      73      64                                      
                  118-        CTRIA2  114     114     64      65      74                                      
                  119-        CTRIA2  115     115     75      74      65                                      
                  120-        CTRIA2  116     116     65      66      75                                      
                  121-        CTRIA2  117     117     76      75      66                                      
                  122-        CTRIA2  118     118     66      67      76                                      
                  123-        CTRIA2  119     119     77      76      67                                      
                  124-        CTRIA2  120     120     67      68      77                                      
                  125-        CTRIA2  121     121     78      77      68                                      
                  126-        CTRIA2  122     122     68      69      78                                      
                  127-        CTRIA2  123     123     79      78      69                                      
                  128-        CTRIA2  124     124     69      70      79                                      
                  129-        CTRIA2  125     125     80      79      70                                      
                  130-        CTRIA2  126     126     70      71      80                                      
                  131-        CTRIA2  127     127     81      80      71                                      
                  132-        CTRIA2  128     128     71      72      81                                      
                  133-        CTRIA2  129     129     82      81      72                                      
                  134-        CTRIA2  130     130     87      86      73                                      
                  135-        CTRIA2  131     131     73      74      87                                      
                  136-        CTRIA2  132     132     88      87      74                                      
                  137-        CTRIA2  133     133     74      75      88                                      
                  138-        CTRIA2  134     134     89      88      75                                      
                  139-        CTRIA2  135     135     75      76      89                                      
                  140-        CTRIA2  136     136     90      89      76                                      
                  141-        CTRIA2  137     137     76      77      90                                      
1 FREQ. RESPONSE OF A TURBOPROP TO 1 PER REV. OSC. AIRLOADS             / 95 X86_64 Windows_NT NASTRAN     / DEC 27, 16 / PAGE    17
      NASTRAN TEST PROBLEM NO. T08-03-1A                                                                                            

      K = 0 MODES, OSCILLATORY AIRLOADS PRESENT                                                                                     

                                                  S O R T E D   B U L K    D A T A    E C H O                                       
                     CARD                                                                                                           
                     COUNT        ---1--- +++2+++ ---3--- +++4+++ ---5--- +++6+++ ---7--- +++8+++ ---9--- +++10+++                  
                  142-        CTRIA2  138     138     91      90      77                                      
                  143-        CTRIA2  139     139     77      78      91                                      
                  144-        CTRIA2  140     140     92      91      78                                      
                  145-        CTRIA2  141     141     78      79      92                                      
                  146-        CTRIA2  142     142     79      80      83                                      
                  147-        CTRIA2  143     143     79      83      92                                      
                  148-        CTRIA2  144     144     93      92      83                                      
                  149-        CTRIA2  145     145     80      81      84                                      
                  150-        CTRIA2  146     146     84      83      80                                      
                  151-        CTRIA2  147     147     83      84      94                                      
                  152-        CTRIA2  148     148     94      93      83                                      
                  153-        CTRIA2  149     149     81      82      85                                      
                  154-        CTRIA2  150     150     85      84      81                                      
                  155-        CTRIA2  151     151     84      85      95                                      
                  156-        CTRIA2  152     152     95      94      84                                      
                  157-        CTRIA2  153     153     100     99      86                                      
                  158-        CTRIA2  154     154     86      87      100                                     
                  159-        CTRIA2  155     155     101     100     87                                      
                  160-        CTRIA2  156     156     87      88      101                                     
                  161-        CTRIA2  157     157     102     101     88                                      
                  162-        CTRIA2  158     158     88      89      102                                     
                  163-        CTRIA2  159     159     103     102     89                                      
                  164-        CTRIA2  160     160     89      90      103                                     
                  165-        CTRIA2  161     161     104     103     90                                      
                  166-        CTRIA2  162     162     90      91      104                                     
                  167-        CTRIA2  163     163     105     104     91                                      
                  168-        CTRIA2  164     164     91      92      105                                     
                  169-        CTRIA2  165     165     92      93      96                                      
                  170-        CTRIA2  166     166     92      96      105                                     
                  171-        CTRIA2  167     167     106     105     96                                      
                  172-        CTRIA2  168     168     93      94      97                                      
                  173-        CTRIA2  169     169     97      96      93                                      
                  174-        CTRIA2  170     170     96      97      107                                     
                  175-        CTRIA2  171     171     107     106     96                                      
                  176-        CTRIA2  172     172     94      95      98                                      
                  177-        CTRIA2  173     173     98      97      94                                      
                  178-        CTRIA2  174     174     97      98      108                                     
                  179-        CTRIA2  175     175     108     107     97                                      
                  180-        CTRIA2  176     176     113     112     99                                      
                  181-        CTRIA2  177     177     99      100     113                                     
                  182-        CTRIA2  178     178     114     113     100                                     
                  183-        CTRIA2  179     179     100     101     114                                     
                  184-        CTRIA2  180     180     115     114     101                                     
                  185-        CTRIA2  181     181     101     102     115                                     
                  186-        CTRIA2  182     182     116     115     102                                     
                  187-        CTRIA2  183     183     102     103     116                                     
                  188-        CTRIA2  184     184     117     116     103                                     
1 FREQ. RESPONSE OF A TURBOPROP TO 1 PER REV. OSC. AIRLOADS             / 95 X86_64 Windows_NT NASTRAN     / DEC 27, 16 / PAGE    18
      NASTRAN TEST PROBLEM NO. T08-03-1A                                                                                            

      K = 0 MODES, OSCILLATORY AIRLOADS PRESENT                                                                                     

                                                  S O R T E D   B U L K    D A T A    E C H O                                       
                     CARD                                                                                                           
                     COUNT        ---1--- +++2+++ ---3--- +++4+++ ---5--- +++6+++ ---7--- +++8+++ ---9--- +++10+++                  
                  189-        CTRIA2  185     185     103     104     117                                     
                  190-        CTRIA2  186     186     118     117     104                                     
                  191-        CTRIA2  187     187     104     105     118                                     
                  192-        CTRIA2  188     188     105     106     109                                     
                  193-        CTRIA2  189     189     105     109     118                                     
                  194-        CTRIA2  190     190     119     118     109                                     
                  195-        CTRIA2  191     191     106     107     110                                     
                  196-        CTRIA2  192     192     110     109     106                                     
                  197-        CTRIA2  193     193     109     110     120                                     
                  198-        CTRIA2  194     194     120     119     109                                     
                  199-        CTRIA2  195     195     107     108     111                                     
                  200-        CTRIA2  196     196     111     110     107                                     
                  201-        CTRIA2  197     197     110     111     121                                     
                  202-        CTRIA2  198     198     121     120     110                                     
                  203-        CTRIA2  199     199     112     113     125                                     
                  204-        CTRIA2  200     200     126     125     113                                     
                  205-        CTRIA2  201     201     113     114     126                                     
                  206-        CTRIA2  202     202     127     126     114                                     
                  207-        CTRIA2  203     203     114     115     127                                     
                  208-        CTRIA2  204     204     128     127     115                                     
                  209-        CTRIA2  205     205     115     116     128                                     
                  210-        CTRIA2  206     206     129     128     116                                     
                  211-        CTRIA2  207     207     116     117     129                                     
                  212-        CTRIA2  208     208     130     129     117                                     
                  213-        CTRIA2  209     209     117     118     130                                     
                  214-        CTRIA2  210     210     131     130     118                                     
                  215-        CTRIA2  211     211     118     119     122                                     
                  216-        CTRIA2  212     212     118     122     131                                     
                  217-        CTRIA2  213     213     132     131     122                                     
                  218-        CTRIA2  214     214     119     120     122                                     
                  219-        CTRIA2  215     215     123     122     120                                     
                  220-        CTRIA2  216     216     122     123     132                                     
                  221-        CTRIA2  217     217     133     132     123                                     
                  222-        CTRIA2  218     218     120     121     123                                     
                  223-        CTRIA2  219     219     124     123     121                                     
                  224-        CTRIA2  220     220     123     124     133                                     
                  225-        CTRIA2  221     221     134     133     124                                     
                  226-        CTRIA2  222     222     125     126     138                                     
                  227-        CTRIA2  223     223     139     138     126                                     
                  228-        CTRIA2  224     224     126     127     139                                     
                  229-        CTRIA2  225     225     140     139     127                                     
                  230-        CTRIA2  226     226     127     128     140                                     
                  231-        CTRIA2  227     227     141     140     128                                     
                  232-        CTRIA2  228     228     128     129     141                                     
                  233-        CTRIA2  229     229     142     141     129                                     
                  234-        CTRIA2  230     230     129     130     142                                     
                  235-        CTRIA2  231     231     143     142     130                                     
1 FREQ. RESPONSE OF A TURBOPROP TO 1 PER REV. OSC. AIRLOADS             / 95 X86_64 Windows_NT NASTRAN     / DEC 27, 16 / PAGE    19
      NASTRAN TEST PROBLEM NO. T08-03-1A                                                                                            

      K = 0 MODES, OSCILLATORY AIRLOADS PRESENT                                                                                     

                                                  S O R T E D   B U L K    D A T A    E C H O                                       
                     CARD                                                                                                           
[...]
    ID.        DISTANCE                  NORMAL-X                          NORMAL-Y                         SHEAR-XY
0     286   -3.236150E-01      3.683260E+03 / 218.4092           6.893528E+02 / 205.9065           1.520301E+03 /  44.3087          
             3.236150E-01      4.406000E+03 /  36.8491           2.572343E+02 / 115.8879           1.081740E+03 / 221.9094          
0     287   -3.636150E-01      5.799860E+01 /  70.9313           2.746233E+03 /  46.1018           1.316444E+03 / 218.0823          
             3.636150E-01      3.116242E+02 /   6.0991           1.870110E+03 / 226.2650           1.687412E+03 /  33.4436          
0     288   -3.291650E-01      3.206398E+02 / 127.5318           1.235222E+03 / 205.8187           3.307784E+03 / 224.9934          
             3.291650E-01      5.944485E+02 /  90.7103           3.613240E+03 /  41.2924           2.538371E+03 /  37.5876          
0     289   -3.813150E-01      6.544688E+03 / 217.2274           5.733719E+03 /  41.7979           1.153113E+03 /  43.1055          
             3.813150E-01      7.231188E+03 /  35.9338           6.355050E+03 / 218.0363           1.450463E+03 / 224.3978          
0     290   -3.552350E-01      3.167156E+03 / 215.9650           5.106194E+03 /  41.6799           5.298187E+02 /  49.5103          
             3.552350E-01      3.943138E+03 /  33.5584           5.386199E+03 / 217.1044           9.753730E+02 / 228.4713          
0     291   -4.047650E-01      3.375191E+03 / 215.9535           6.047471E+03 /  40.2274           5.528038E+02 / 218.4726          
             4.047650E-01      3.949389E+03 /  33.9999           6.254023E+03 / 217.6694           3.120388E+02 / 355.7650          
0     292   -3.815150E-01      7.433635E+01 /  89.1040           5.859150E+03 /  39.5788           8.745500E+02 / 215.1007          
             3.815150E-01      9.180620E+02 /  26.8009           5.952762E+03 / 217.2534           5.674141E+02 /  15.1524          
0     293   -4.291350E-01      4.572545E+02 /  37.9354           5.338006E+03 /  37.6204           2.092658E+02 / 226.1031          
             4.291350E-01      1.494533E+02 / 341.9713           5.428624E+03 / 217.5055           3.002039E+02 / 270.6672          
0     294   -4.524350E-01      1.594277E+03 / 220.2168           4.753622E+03 /  37.3544           2.153738E+02 / 222.5378          
             4.524350E-01      2.039857E+03 /  38.3118           4.877608E+03 / 216.9320           2.826069E+02 / 269.6141          
0     295   -4.164000E-01      1.870398E+03 / 221.8525           5.031429E+03 /  34.9557           4.878424E+02 /  47.2298          
             4.164000E-01      2.808986E+03 /  36.4252           4.988453E+03 / 218.7061           9.975380E+02 / 226.8816          
0     296   -4.338650E-01      2.660303E+03 / 219.7352           5.429618E+03 /  34.4650           3.243536E+02 /  40.4232          
             4.338650E-01      3.034553E+03 /  39.2902           5.518947E+03 / 218.0739           8.482324E+02 / 227.7221          
0     297   -3.824150E-01      1.793098E+03 / 222.5388           4.562703E+03 /  30.7907           9.729592E+02 / 204.1635          
             3.824150E-01      2.890185E+03 /  34.9204           4.297116E+03 / 221.0843           2.681250E+02 /  41.8995          
0     298   -3.010850E-01      2.445244E+03 / 217.3520           4.782346E+03 /  27.8896           6.958190E+02 / 208.9539          
             3.010850E-01      2.829465E+03 /  37.5623           4.286718E+03 / 223.4126           2.180585E+01 /  23.1602          
0     299   -4.160150E-01      2.569010E+03 /  42.0422           4.785904E+03 /  43.0952           5.260836E+02 /  58.1219          
             4.160150E-01      1.686522E+03 / 228.3622           4.769816E+03 / 216.8691           5.601787E+02 / 223.2169          
0     300   -3.238650E-01      4.244355E+03 /  38.5019           8.983822E+03 /  40.1809           2.673480E+03 /  41.1869          
             3.238650E-01      3.373681E+03 / 217.2832           9.155240E+03 / 216.0250           2.634031E+03 / 220.0841          
1 FREQ. RESPONSE OF A TURBOPROP TO 1 PER REV. OSC. AIRLOADS             / 95 X86_64 Windows_NT NASTRAN     / DEC 27, 16 / PAGE   103
      NASTRAN TEST PROBLEM NO. T08-03-1A                                                                                            
0     K = 0 MODES, OSCILLATORY AIRLOADS PRESENT                                                                                     
      FREQUENCY =  1.333000E+02
           C O M P L E X   S T R E S S E S   I N   G E N E R A L  T R I A N G U L A R   E L E M E N T S   ( C T R I A 2 )
                                                         (MAGNITUDE/PHASE)
 
  ELEMENT       FIBRE                                     - STRESSES IN ELEMENT COORDINATE SYSTEM -
    ID.        DISTANCE                  NORMAL-X                          NORMAL-Y                         SHEAR-XY
0     301   -4.678500E-01      2.960743E+02 /  55.6538           4.369778E+03 /  41.2493           3.034602E+02 / 195.3712          
             4.678500E-01      4.390891E+02 /   3.0700           4.358373E+03 / 217.9415           1.586554E+02 / 335.8884          
0     302   -4.530150E-01      2.514479E+03 /  38.3239           7.825478E+03 /  39.9227           5.234886E+02 /  40.1076          
             4.530150E-01      2.090127E+03 / 217.2575           7.997162E+03 / 215.7589           6.714744E+02 / 237.9527          
0     303   -4.952350E-01      7.585711E+02 / 215.5329           2.934574E+03 /  38.3605           9.918814E+01 / 152.1696          
             4.952350E-01      1.339724E+03 /  30.2825           2.943201E+03 / 219.4038           2.292408E+02 / 265.9816          
0     304   -5.107000E-01      9.041185E+02 /  42.4328           4.702440E+03 /  40.1435           2.211160E+02 / 220.5284          
             5.107000E-01      6.408419E+02 / 221.6538           4.830110E+03 / 216.3098           2.985443E+02 / 325.7346          
0     305   -5.080350E-01      4.411894E+02 /  23.3249           3.600656E+03 /  32.9773           1.590658E+02 / 183.4803          
             5.080350E-01      1.318471E+02 / 340.6471           3.566767E+03 / 220.2409           1.702759E+02 / 264.8093          
0     306   -5.185350E-01      3.404476E+02 / 212.1888           3.120599E+03 /  37.7705           1.378049E+01 / 318.0549          
             5.185350E-01      4.974595E+02 /  34.5962           3.272542E+03 / 217.7877           3.215355E+02 / 279.1234          
0     307   -4.472350E-01      7.426033E+02 /  29.0270           4.934229E+03 /  32.1295           3.264142E+02 / 200.7923          
             4.472350E-01      3.450254E+02 / 232.7997           4.950905E+03 / 222.4604           1.214636E+02 /  12.9502          
0     308   -4.853650E-01      1.477168E+03 /  39.7157           6.218465E+03 /  36.5849           5.585762E+01 / 244.8661          
             4.853650E-01      1.407898E+03 / 220.4086           6.347469E+03 / 220.0581           2.467775E+02 / 283.6884          
0     309   -2.197000E-01      1.126800E+03 /  35.7899           4.012890E+03 /  27.7242           3.207030E+02 / 204.1511          
             2.197000E-01      1.018933E+03 / 217.2648           4.346203E+03 / 226.3622           3.000916E+02 /  42.3483          
0     310   -3.144000E-01      2.286780E+03 /  38.0709           5.637405E+03 /  34.0988           1.191845E+02 / 245.0994          
             3.144000E-01      2.277790E+03 / 218.7710           5.805461E+03 / 222.3811           1.555333E+02 / 300.9469          
0     311   -2.280350E-01      4.224732E+03 / 210.7348           3.391758E+03 /  58.6892           1.490469E+03 / 204.0696          
             2.280350E-01      5.229198E+03 /  38.4517           2.998094E+03 / 201.0002           1.735689E+03 /  41.4920          
0     312   -3.144000E-01      1.501948E+03 / 217.4741           3.629655E+03 /  46.7624           5.482369E+02 / 213.1148          
             3.144000E-01      1.559495E+03 /  34.7408           3.612094E+03 / 211.8264           6.192478E+02 /  28.1495          
0     313   -4.472350E-01      2.396358E+02 / 173.9572           5.530615E+03 /  44.5228           4.416490E+02 / 196.5383          
             4.472350E-01      7.155243E+02 /  40.9604           5.343936E+03 / 213.5937           4.940829E+02 /  31.0997          
0     314   -4.853650E-01      4.904348E+02 / 216.9318           5.238876E+03 /  41.1157           6.146870E+02 / 217.0424          
             4.853650E-01      5.582886E+02 /  33.6588           5.210873E+03 / 216.5646           6.169166E+02 /  20.6134          
0     315   -5.340000E-01      1.394677E+02 / 191.2713           5.267203E+03 /  41.3380           5.686041E+02 / 206.0808          
             5.340000E-01      4.740629E+02 /  39.6501           5.139435E+03 / 216.3620           5.910835E+02 /  26.1411          
1 FREQ. RESPONSE OF A TURBOPROP TO 1 PER REV. OSC. AIRLOADS             / 95 X86_64 Windows_NT NASTRAN     / DEC 27, 16 / PAGE   104
      NASTRAN TEST PROBLEM NO. T08-03-1A                                                                                            
0     K = 0 MODES, OSCILLATORY AIRLOADS PRESENT                                                                                     
      FREQUENCY =  1.333000E+02
           C O M P L E X   S T R E S S E S   I N   G E N E R A L  T R I A N G U L A R   E L E M E N T S   ( C T R I A 2 )
                                                         (MAGNITUDE/PHASE)
 
  ELEMENT       FIBRE                                     - STRESSES IN ELEMENT COORDINATE SYSTEM -
    ID.        DISTANCE                  NORMAL-X                          NORMAL-Y                         SHEAR-XY
0     316   -5.445000E-01      1.567713E+02 /  33.3437           5.717312E+03 /  38.2628           4.539169E+02 / 217.8519          
             5.445000E-01      1.078300E+02 / 238.6110           5.738149E+03 / 218.5721           4.440623E+02 /   9.3129          
0     317   -5.445000E-01      8.094578E+02 /  42.0554           5.786750E+03 /  38.4105           4.158363E+02 / 201.0273          
             5.445000E-01      5.856061E+02 / 223.5649           5.748231E+03 / 218.5445           4.036255E+02 /  20.3733          
0     318   -5.340000E-01      4.517878E+02 /  32.4083           5.772178E+03 /  35.3633           5.159510E+02 / 219.2886          
             5.340000E-01      4.224283E+02 / 225.2686           5.862280E+03 / 220.3411           4.739349E+02 /  13.4188          
0     319   -4.853650E-01      6.263721E+02 / 217.1839           5.283084E+03 /  35.3020           4.904537E+02 / 204.1589          
             4.853650E-01      7.184376E+02 /  33.0822           5.353352E+03 / 220.5764           4.581062E+02 /  29.8231          
0     320   -4.472350E-01      1.991378E+02 /  20.7978           5.590485E+03 /  32.3270           1.779049E+02 / 223.2371          
             4.472350E-01      2.063734E+02 / 240.7054           5.781157E+03 / 222.6698           1.825858E+02 / 338.8408          
0     321   -3.144000E-01      1.715673E+03 / 219.9306           3.590517E+03 /  29.4233           2.465919E+02 / 190.9510          
             3.144000E-01      1.711670E+03 /  36.9006           3.779812E+03 / 225.1591           2.078300E+02 /  40.2946          
0     322   -2.197000E-01      3.308907E+02 /  22.9553           3.181673E+03 /  22.3104           3.760222E+02 /  32.5531          
             2.197000E-01      3.573325E+02 / 232.4499           3.500215E+03 / 231.0318           4.622822E+02 / 232.1752          
0     323   -2.197000E-01      1.231389E+03 / 208.8332           2.214402E+03 /  67.3395           1.242782E+03 / 211.1471          
             2.197000E-01      1.339610E+03 /  42.0547           1.965905E+03 / 190.7078           1.241390E+03 /  39.7381          
0     324   -3.144000E-01      9.098656E+02 /  42.4877           3.697422E+03 /  47.5246           7.811808E+02 / 224.0823          
             3.144000E-01      8.929674E+02 / 212.6252           3.551696E+03 / 210.4342           7.703355E+02 /  25.2612          
0     325   -4.472350E-01      4.645004E+02 / 200.6906           4.573472E+03 /  46.1710           1.005663E+03 / 210.2658          
             4.472350E-01      5.619889E+02 /  44.8830           4.390446E+03 / 212.1541           1.009973E+03 /  37.1549          
0     326   -4.853650E-01      8.353425E+02 /  40.2733           5.498818E+03 /  41.1151           6.610083E+02 / 220.8705          
             4.853650E-01      8.232211E+02 / 214.6127           5.414723E+03 / 216.1594           6.478417E+02 /  24.6265          
0     327   -5.340000E-01      2.870338E+02 /  56.0216           5.675693E+03 /  41.1566           6.142700E+02 / 206.4994          
             5.340000E-01      1.773508E+02 / 203.9789           5.560364E+03 / 216.1686           6.248526E+02 /  35.3833          
0     328   -5.445000E-01      1.069777E+03 /  40.0906           6.212527E+03 /  38.3176           3.796780E+02 / 219.1708          
             5.445000E-01      1.062789E+03 / 218.8994           6.207661E+03 / 218.6696           3.802163E+02 /  14.1668          
0     329   -5.445000E-01      4.970094E+02 /  45.1148           5.904997E+03 /  38.3492           3.255790E+02 / 195.0254          
             5.445000E-01      4.208344E+02 / 216.5738           5.876842E+03 / 218.5529           3.296734E+02 /  32.4695          
0     330   -5.340000E-01      1.609805E+03 /  34.7027           6.624859E+03 /  35.5827           9.484822E+01 /  20.7692          
             5.340000E-01      1.634546E+03 / 219.9767           6.727744E+03 / 220.4516           1.949327E+02 / 266.5388          
1 FREQ. RESPONSE OF A TURBOPROP TO 1 PER REV. OSC. AIRLOADS             / 95 X86_64 Windows_NT NASTRAN     / DEC 27, 16 / PAGE   105
      NASTRAN TEST PROBLEM NO. T08-03-1A                                                                                            
0     K = 0 MODES, OSCILLATORY AIRLOADS PRESENT                                                                                     
      FREQUENCY =  1.333000E+02
           C O M P L E X   S T R E S S E S   I N   G E N E R A L  T R I A N G U L A R   E L E M E N T S   ( C T R I A 2 )
                                                         (MAGNITUDE/PHASE)
 
  ELEMENT       FIBRE                                     - STRESSES IN ELEMENT COORDINATE SYSTEM -
    ID.        DISTANCE                  NORMAL-X                          NORMAL-Y                         SHEAR-XY
0     331   -4.853650E-01      9.085870E+01 / 181.3602           5.439797E+03 /  35.5595           1.618931E+02 /  78.7616          
             4.853650E-01      1.151948E+02 /  33.3163           5.520065E+03 / 220.7802           9.238540E+01 / 223.9433          
0     332   -4.472350E-01      1.201385E+03 /  33.7087           5.947408E+03 /  32.5847           5.504407E+02 /  32.1079          
             4.472350E-01      1.242350E+03 / 222.7597           6.175307E+03 / 222.8613           6.095358E+02 / 231.0335          
0     333   -3.144000E-01      1.564877E+02 / 205.0112           3.797152E+03 /  30.2584           4.456641E+02 /  46.9930          
             3.144000E-01      1.745474E+02 /  43.8066           4.003090E+03 / 224.9886           4.144219E+02 / 217.4388          
0     334   -2.197000E-01      8.827368E+02 /  30.3141           3.138583E+03 /  21.7100           5.861865E+02 /  26.8342          
             2.197000E-01      9.432006E+02 / 226.8619           3.498980E+03 / 231.4027           6.581380E+02 / 231.8789          
0     335   -2.793350E-01      4.365716E+02 /  71.9408           8.903426E+02 /  90.0887           6.319802E+02 / 224.3648          
             2.793350E-01      3.553303E+02 / 193.9967           5.991216E+02 / 175.2120           6.131872E+02 /  30.5849          
0     336   -3.532000E-01      7.752234E+01 /  95.1555           1.553253E+03 /  60.6669           1.250977E+03 / 217.5397          
             3.532000E-01      4.201883E+01 / 177.4538           1.364216E+03 / 205.1845           1.233661E+03 /  35.9585          
0     337   -5.331000E-01      1.279232E+03 /  47.9254           3.897952E+03 /  47.2109           9.587278E+02 / 217.6640          
             5.331000E-01      1.219631E+03 / 214.3940           3.732006E+03 / 214.5404           9.529824E+02 /  34.7894          
0     338   -5.324350E-01      2.466754E+02 /  52.7991           4.256023E+03 /  43.0775           1.031575E+03 / 211.8232          
             5.324350E-01      2.240942E+02 / 211.1139           4.153376E+03 / 216.3553           1.033822E+03 /  37.1429          
0     339   -5.695650E-01      1.724691E+03 /  42.3647           5.525315E+03 /  41.3932           4.213709E+02 / 213.6441          
             5.695650E-01      1.689909E+03 / 217.5543           5.431071E+03 / 217.0975           4.239236E+02 /  32.3829          
0     340   -5.330000E-01      8.108961E+02 /  40.5526           5.199253E+03 /  38.0831           2.853911E+02 / 194.3176          
             5.330000E-01      7.991989E+02 / 218.6165           5.181198E+03 / 218.3413           2.799774E+02 /  33.4508          
0     341   -5.330000E-01      1.268457E+03 /  37.8427           5.346200E+03 /  37.9808           1.476965E+02 /  84.1131          
             5.330000E-01      1.252809E+03 / 215.8589           5.326129E+03 / 218.1721           8.068618E+01 / 231.9917          
0     342   -5.695650E-01      1.855933E+03 /  34.1572           5.596017E+03 /  34.9104           1.804969E+02 /  43.0696          
             5.695650E-01      1.878661E+03 / 219.1920           5.665994E+03 / 219.6730           1.951933E+02 / 237.3103          
0     343   -5.324350E-01      4.940020E+02 /  36.5157           4.321512E+03 /  33.7055           8.007089E+02 /  43.2859          
             5.324350E-01      4.830310E+02 / 214.8933           4.397625E+03 / 220.2334           7.826516E+02 / 221.2225          
0     344   -5.331000E-01      1.224774E+03 /  29.0024           3.700725E+03 /  29.6431           6.206390E+02 /  35.5546          
             5.331000E-01      1.277495E+03 / 222.7522           3.855204E+03 / 222.6390           6.555262E+02 / 227.4026          
0     345   -3.532000E-01      1.900184E+02 /  50.3307           1.522491E+03 /  20.5444           9.082027E+02 /  33.5534          
             3.532000E-01      1.683182E+02 / 215.7054           1.666909E+03 / 230.0172           9.433776E+02 / 224.2438          
1 FREQ. RESPONSE OF A TURBOPROP TO 1 PER REV. OSC. AIRLOADS             / 95 X86_64 Windows_NT NASTRAN     / DEC 27, 16 / PAGE   106
      NASTRAN TEST PROBLEM NO. T08-03-1A                                                                                            
0     K = 0 MODES, OSCILLATORY AIRLOADS PRESENT                                                                                     
      FREQUENCY =  1.333000E+02
           C O M P L E X   S T R E S S E S   I N   G E N E R A L  T R I A N G U L A R   E L E M E N T S   ( C T R I A 2 )
                                                         (MAGNITUDE/PHASE)
 
  ELEMENT       FIBRE                                     - STRESSES IN ELEMENT COORDINATE SYSTEM -
    ID.        DISTANCE                  NORMAL-X                          NORMAL-Y                         SHEAR-XY
0     346   -2.793350E-01      3.679734E+02 /   6.8517           8.419775E+02 / 356.7697           4.287892E+02 /  19.9906          
             2.793350E-01      4.280791E+02 / 240.2701           9.764189E+02 / 245.6017           4.932381E+02 / 235.8153          




                                        * * * END OF JOB * * *
1
 JOB TITLE =  FREQ. RESPONSE OF A TURBOPROP TO 1 PER REV. OSC. AIRLOADS          
 DATE: 12/27/16
 END TIME: 15:32:39
 TOTAL WALL CLOCK TIME      0 SEC.
 
